File Z:\imprimir\modelo 2 0.$2k was saved on m/d/yy at h:mm:ss
 
TABLE:  "ACTIVE DEGREES OF FREEDOM"
   UX=Yes   UY=Yes   UZ=Yes   RX=No   RY=No   RZ=No
 
TABLE:  "ANALYSIS OPTIONS"
   Solver=Advanced   SolverProc=Auto   Force32Bit=No   StiffCase=None   GeomMod=None
 
TABLE:  "AUTO WAVE 3 - WAVE CHARACTERISTICS - GENERAL"
   WaveChar=Default   WaveType="From Theory"   KinFactor=1   SWaterDepth=1800   WaveHeight=720   WavePeriod=12   WaveTheory=Linear
 
TABLE:  "CASE - MODAL 1 - GENERAL"
   Case=MODAL   ModeType=Eigen   MaxNumModes=12   MinNumModes=1   EigenShift=0   EigenCutoff=0   EigenTol=1E-09   AutoShift=Yes
 
TABLE:  "CASE - STATIC 1 - LOAD ASSIGNMENTS"
   Case=DEAD   LoadType="Load pattern"   LoadName=DEAD   LoadSF=1
   Case=G+Q   LoadType="Load pattern"   LoadName=G+Q   LoadSF=1
 
TABLE:  "CONNECTIVITY - FRAME"
   Frame=4   JointI=5   JointJ=6   IsCurved=No   GUID=5cc079c6-055d-4ad4-a56d-ab0e7bff41da
   Frame=5   JointI=6   JointJ=7   IsCurved=No   GUID=4ed58fed-3923-46e2-9ac7-5d3bd457ec1b
   Frame=6   JointI=7   JointJ=8   IsCurved=No   GUID=3d2048a0-6b16-486c-94ad-8a34e232a208
   Frame=7   JointI=8   JointJ=9   IsCurved=No   GUID=6b6033b0-e023-457a-a276-c3f7b3223f81
   Frame=8   JointI=9   JointJ=10   IsCurved=No   GUID=3a2c4b0b-ba2e-4bb4-9af6-d116a2e9b338
   Frame=9   JointI=10   JointJ=11   IsCurved=No   GUID=577cdc0c-570f-4134-bf84-745155a36f59
   Frame=10   JointI=11   JointJ=12   IsCurved=No   GUID=94db3a7d-8070-4fa5-805e-08c8ad0d31b7
   Frame=11   JointI=12   JointJ=13   IsCurved=No   GUID=84cbd8ba-b404-4a76-b2b8-eab5f048c6f8
   Frame=12   JointI=13   JointJ=14   IsCurved=No   GUID=86f3acc3-04d7-46fc-9c8b-3716b3452040
   Frame=13   JointI=14   JointJ=15   IsCurved=No   GUID=b49c2afa-611d-4bf5-a075-b1b0dd72ceee
   Frame=14   JointI=15   JointJ=16   IsCurved=No   GUID=56507641-055b-4edc-8431-fd3719dec87a
   Frame=15   JointI=16   JointJ=17   IsCurved=No   GUID=19f53a41-ce44-4055-8d85-4b7e2a010e19
   Frame=16   JointI=17   JointJ=18   IsCurved=No   GUID=3a402e32-8ced-4bbc-aaea-40d3e5ff65b2
   Frame=17   JointI=18   JointJ=19   IsCurved=No   GUID=fd6e9e21-4f3b-4090-8b6c-5511aa85020b
   Frame=18   JointI=19   JointJ=20   IsCurved=No   GUID=82be42ef-0bb0-4f40-a5da-2a413a66b9aa
   Frame=19   JointI=20   JointJ=21   IsCurved=No   GUID=377c077c-b159-4c7c-848b-d38f55a06651
   Frame=20   JointI=21   JointJ=22   IsCurved=No   GUID=792d5c99-dd7e-42c2-8d2f-1dac670f583a
   Frame=21   JointI=22   JointJ=23   IsCurved=No   GUID=4d4575d3-cc43-49fd-8d3b-a32399f02027
   Frame=22   JointI=23   JointJ=24   IsCurved=No   GUID=dc3629da-5f13-4ebe-ad84-48d89e89b41c
   Frame=23   JointI=24   JointJ=25   IsCurved=No   GUID=df379755-9f25-429d-8540-124c42244659
   Frame=24   JointI=25   JointJ=26   IsCurved=No   GUID=2296fe82-1b7f-474b-9eb3-c020401b4039
   Frame=25   JointI=26   JointJ=27   IsCurved=No   GUID=fe0b26c8-3e98-4f3f-8888-0c9445b74129
   Frame=26   JointI=27   JointJ=28   IsCurved=No   GUID=f0457646-0cf7-4fbc-a3bc-a663ae288e01
   Frame=27   JointI=28   JointJ=29   IsCurved=No   GUID=9088b52c-c0fe-4ddf-9495-06afff828d3a
   Frame=28   JointI=29   JointJ=30   IsCurved=No   GUID=3aa333e3-621f-4abc-b10f-f57c128139b8
   Frame=29   JointI=30   JointJ=31   IsCurved=No   GUID=dd122029-0309-49b5-8cdb-f986fb8fcff2
   Frame=30   JointI=1   JointJ=6   IsCurved=No   GUID=e5d1ff74-05a5-4a73-b10f-0e2543afcc70
   Frame=31   JointI=6   JointJ=32   IsCurved=No   GUID=bdfc0d64-6cff-468a-8d0d-f942840f70f4
   Frame=32   JointI=32   JointJ=8   IsCurved=No   GUID=c02ce51b-9966-4d97-aa9a-fd869666a70b
   Frame=37   JointI=12   JointJ=33   IsCurved=No   GUID=78f99460-c9b4-4403-93ab-05c67334bd38
   Frame=38   JointI=33   JointJ=14   IsCurved=No   GUID=01bd7a40-820f-4a7e-8ffd-a193e5ef6418
   Frame=39   JointI=14   JointJ=34   IsCurved=No   GUID=ab89f4bd-89bb-453f-a23a-5c6c0de578cf
   Frame=40   JointI=34   JointJ=16   IsCurved=No   GUID=6d6b92c1-c661-48a2-8ece-eb4895b86ad0
   Frame=43   JointI=18   JointJ=36   IsCurved=No   GUID=769f478e-be36-43eb-a374-b1b0198e8cbd
   Frame=44   JointI=36   JointJ=20   IsCurved=No   GUID=a2763872-82e0-49db-b48a-79cb217276aa
   Frame=45   JointI=20   JointJ=37   IsCurved=No   GUID=8a52bdc9-b463-41d0-b755-53f9cfc80671
   Frame=46   JointI=37   JointJ=22   IsCurved=No   GUID=dcb8e174-72ab-43b7-ac6f-881fc7a9888e
   Frame=51   JointI=26   JointJ=40   IsCurved=No   GUID=05bc96b2-c1e6-440e-8ee4-f0d7d32880b9
   Frame=52   JointI=40   JointJ=28   IsCurved=No   GUID=e9dbb9ad-b1e8-4675-b8a0-fdc4bbdfccf3
   Frame=53   JointI=28   JointJ=41   IsCurved=No   GUID=a90c7e48-196a-44ba-8cba-8a864da85a34
   Frame=54   JointI=41   JointJ=30   IsCurved=No   GUID=ee0c1dbb-d357-4fde-92ac-143b5397e09d
   Frame=55   JointI=30   JointJ=42   IsCurved=No   GUID=e1ff1dad-fb51-4092-9e55-fee141787692
   Frame=56   JointI=26   JointJ=43   IsCurved=No   GUID=df09f0d4-2873-456e-958a-1741a06bbd9e
   Frame=57   JointI=43   JointJ=24   IsCurved=No   GUID=84c85b9a-ba63-4e7f-b270-7b8383d37be3
   Frame=58   JointI=24   JointJ=44   IsCurved=No   GUID=9ab6ad0f-46e1-4fdc-ac89-b09e85b8e442
   Frame=59   JointI=44   JointJ=22   IsCurved=No   GUID=1810d477-3085-43c3-8030-8385d61de9ab
   Frame=60   JointI=18   JointJ=45   IsCurved=No   GUID=fa15ff5e-bad7-4eff-bb16-4523d440bf91
   Frame=61   JointI=45   JointJ=16   IsCurved=No   GUID=418eaa62-dc5a-4fc3-b668-b8a872e4fe61
   Frame=62   JointI=8   JointJ=46   IsCurved=No   GUID=1288f20f-0b64-4001-a45d-684fe8f2e1b7
   Frame=63   JointI=46   JointJ=10   IsCurved=No   GUID=04ff3110-47a8-47c5-bb39-3d1ea6a1b799
   Frame=64   JointI=10   JointJ=47   IsCurved=No   GUID=4d2f1abb-f43b-4eb8-a396-8d3bf2496c05
   Frame=65   JointI=47   JointJ=12   IsCurved=No   GUID=b5a3aea5-1128-4d74-bb5c-a406b82daf33
   Frame=66   JointI=1   JointJ=32   IsCurved=No   GUID=5218fad0-8678-4f2e-86d2-cf4eb02fd966
   Frame=67   JointI=32   JointJ=46   IsCurved=No   GUID=5a168b38-7640-4c3b-af3c-406a5a84ff66
   Frame=68   JointI=46   JointJ=47   IsCurved=No   GUID=92b65aa5-5d87-414c-ad4c-812f65bcfcfd
   Frame=69   JointI=47   JointJ=33   IsCurved=No   GUID=fb548df3-1dce-4e04-95a5-a707d4d8766b
   Frame=70   JointI=33   JointJ=34   IsCurved=No   GUID=d8b32641-1931-4b5b-927c-68eff9cd1c98
   Frame=71   JointI=34   JointJ=45   IsCurved=No   GUID=44c06797-ec1e-482c-baa8-9783f3f8b779
   Frame=72   JointI=45   JointJ=36   IsCurved=No   GUID=00fe9a69-c8f0-41bc-868f-719cdfe754f1
   Frame=73   JointI=36   JointJ=37   IsCurved=No   GUID=5f0f57ae-39d4-4f80-9281-96a50fc03130
   Frame=74   JointI=37   JointJ=44   IsCurved=No   GUID=f2006ba0-872f-4203-aea6-d9c0d3768f7a
   Frame=75   JointI=44   JointJ=43   IsCurved=No   GUID=ebb4fe04-39d4-48a0-b4ab-03d0908d1ec8
   Frame=76   JointI=43   JointJ=40   IsCurved=No   GUID=d9b177e6-d0f9-4ecf-99e1-e6ccfbffd82c
   Frame=77   JointI=40   JointJ=41   IsCurved=No   GUID=012fe4d0-e98e-49bb-9bce-ef87ec53fb55
   Frame=78   JointI=41   JointJ=42   IsCurved=No   GUID=58d67c87-f813-4db7-bc88-c23444ed6319
   Frame=79   JointI=42   JointJ=31   IsCurved=No   GUID=9120187d-f71f-4dce-95d3-8dcce54f958b
   Frame=80   JointI=31   JointJ=29   IsCurved=No   GUID=3db09623-666c-4ea0-9ac9-369a94099fc8
   Frame=81   JointI=29   JointJ=27   IsCurved=No   GUID=b83aa4d4-06e2-4fdc-9e30-3cb0138d7403
   Frame=82   JointI=27   JointJ=25   IsCurved=No   GUID=da15a1c8-3998-4060-87b0-40bf4abf810c
   Frame=83   JointI=25   JointJ=23   IsCurved=No   GUID=4d655573-d19a-457e-9734-9b18dad7dc1f
   Frame=84   JointI=23   JointJ=21   IsCurved=No   GUID=38ce102b-7023-4b55-95ce-4e56b71149a4
   Frame=85   JointI=21   JointJ=19   IsCurved=No   GUID=a72313c5-1541-47c0-ab22-188c8b6aeed8
   Frame=86   JointI=19   JointJ=17   IsCurved=No   GUID=999a5ad8-e5d7-440b-907f-1d8396d05d46
   Frame=87   JointI=17   JointJ=15   IsCurved=No   GUID=cf8917d6-16a9-4a7a-a78e-938dd3407bb4
   Frame=88   JointI=15   JointJ=13   IsCurved=No   GUID=e7907827-ae93-4eec-af03-0db9c6b1e084
   Frame=89   JointI=13   JointJ=11   IsCurved=No   GUID=7dc6c8b7-6e10-47df-9406-d8c61d9fe350
   Frame=90   JointI=11   JointJ=9   IsCurved=No   GUID=d0c9307b-6953-47af-9310-6249445f19a0
   Frame=91   JointI=9   JointJ=7   IsCurved=No   GUID=514e6839-68b6-44f0-b5d1-13e5b72e9599
   Frame=92   JointI=7   JointJ=5   IsCurved=No   GUID=230da210-23ed-4ca8-816a-e0a2b87ca276
   Frame=93   JointI=5   JointJ=1   IsCurved=No   GUID=8ea46115-bb78-4a97-b492-a0547b97b918
   Frame=94   JointI=1   JointJ=7   IsCurved=No   GUID=f12785ae-64c0-4fb5-b167-24d11a1c6d75
   Frame=95   JointI=7   JointJ=32   IsCurved=No   GUID=c0b415ac-b013-4c1a-ac24-1b6b11928d55
   Frame=96   JointI=7   JointJ=46   IsCurved=No   GUID=0ef50b4e-ec59-48f1-bba1-fc0f7f292a9e
   Frame=97   JointI=46   JointJ=9   IsCurved=No   GUID=f07f9a16-6d31-46bb-b2e5-41516dd2a755
   Frame=98   JointI=11   JointJ=47   IsCurved=No   GUID=0bd2ac07-3c37-4698-945b-ee87e9e62708
   Frame=99   JointI=33   JointJ=13   IsCurved=No   GUID=d53c95b8-8908-464c-b3ea-2f2381522c48
   Frame=100   JointI=15   JointJ=34   IsCurved=No   GUID=3599b5aa-7b59-45d6-9ace-d42548b8557a
   Frame=101   JointI=17   JointJ=45   IsCurved=No   GUID=90654a91-a94f-43fa-be79-4257e5c445b4
   Frame=102   JointI=19   JointJ=36   IsCurved=No   GUID=63900534-e9e3-4693-8079-0df79a58ee5a
   Frame=103   JointI=21   JointJ=37   IsCurved=No   GUID=cdfa7871-7915-4061-ab60-90e31b7dee2a
   Frame=104   JointI=23   JointJ=44   IsCurved=No   GUID=80519045-d0a8-4591-9ab3-13ef6e389275
   Frame=105   JointI=25   JointJ=43   IsCurved=No   GUID=324d2452-d509-415a-95f7-07df3a5d892d
   Frame=106   JointI=27   JointJ=40   IsCurved=No   GUID=a3bf3ef1-23af-41c2-8e76-253929daf3d2
   Frame=107   JointI=29   JointJ=41   IsCurved=No   GUID=0ba78989-03d7-4ab4-bf7c-990bf5de06f2
   Frame=108   JointI=28   JointJ=30   IsCurved=No   GUID=0cf34eb7-0741-4382-960b-acb1298323a0
   Frame=109   JointI=46   JointJ=11   IsCurved=No   GUID=2db32c03-6853-419f-9dec-910e378c4566
   Frame=110   JointI=11   JointJ=33   IsCurved=No   GUID=3d0756ea-e6f3-48fe-a023-e20166a4c638
   Frame=111   JointI=33   JointJ=15   IsCurved=No   GUID=047e7d48-56bc-42b3-bc86-5e44ed0f3d31
   Frame=112   JointI=15   JointJ=45   IsCurved=No   GUID=27d0057a-2836-45eb-9968-35675f6558ef
   Frame=113   JointI=31   JointJ=41   IsCurved=No   GUID=4bfe2405-293e-452b-ad16-27f99a311579
   Frame=114   JointI=41   JointJ=27   IsCurved=No   GUID=c68c4c9c-2f5a-4715-ba79-b920bd262a2f
   Frame=115   JointI=27   JointJ=43   IsCurved=No   GUID=55b1cbd5-9dfd-4532-9e42-a67bfb8176f5
   Frame=116   JointI=43   JointJ=23   IsCurved=No   GUID=a382084e-8ec7-44be-ada1-2674b5c4bb83
   Frame=117   JointI=23   JointJ=37   IsCurved=No   GUID=d54b532d-c062-4d02-9664-447992b79ccf
   Frame=118   JointI=37   JointJ=19   IsCurved=No   GUID=4fd16c75-0d5f-4c3a-89b1-042f1d6415a8
   Frame=119   JointI=6   JointJ=8   IsCurved=No   GUID=a9299f73-a5fe-4b9d-8bdc-ace363bdb0df
   Frame=120   JointI=8   JointJ=10   IsCurved=No   GUID=67902c00-1c66-42a8-91cd-d6643f2bfcb7
   Frame=121   JointI=10   JointJ=12   IsCurved=No   GUID=1d10bd7d-08b7-477c-9f03-08afb29a1d00
   Frame=122   JointI=12   JointJ=14   IsCurved=No   GUID=72576788-5749-46ff-8131-7a340f28e9c2
   Frame=123   JointI=14   JointJ=16   IsCurved=No   GUID=531615e9-1d05-42a2-91ec-f85bb25d4de5
   Frame=124   JointI=16   JointJ=18   IsCurved=No   GUID=85911106-5a36-4150-926d-810a131c2b0c
   Frame=125   JointI=18   JointJ=20   IsCurved=No   GUID=05ed15cf-5bc9-4180-ad28-3c814a9583c9
   Frame=126   JointI=20   JointJ=22   IsCurved=No   GUID=01cae16e-7f0a-464b-bb03-e44d75ddf555
   Frame=127   JointI=22   JointJ=24   IsCurved=No   GUID=4b6adbe1-b1a8-42b6-908e-6cf9c62dedd3
   Frame=128   JointI=24   JointJ=26   IsCurved=No   GUID=52742bbe-8add-4976-8125-cc5de7a716d4
   Frame=129   JointI=26   JointJ=28   IsCurved=No   GUID=08f2e939-398f-43db-97a9-7f61ad3fe857
 
TABLE:  "COORDINATE SYSTEMS"
   Name=GLOBAL   Type=Cartesian   X=0   Y=0   Z=0   AboutZ=0   AboutY=0   AboutX=0
   Name=GLOBAL-1   Type=Cartesian   X=0   Y=0   Z=0   AboutZ=0   AboutY=0   AboutX=0
 
TABLE:  "DATABASE DOCUMENTATION"
 
TABLE:  "DATABASE FORMAT TYPES"
   UnitsCurr=Yes   OverrideE=No
 
TABLE:  "FRAME AUTO MESH ASSIGNMENTS"
   Frame=4   AutoMesh=Yes   AtJoints=Yes   AtFrames=No   NumSegments=0   MaxLength=0   MaxDegrees=0
   Frame=5   AutoMesh=Yes   AtJoints=Yes   AtFrames=No   NumSegments=0   MaxLength=0   MaxDegrees=0
   Frame=6   AutoMesh=Yes   AtJoints=Yes   AtFrames=No   NumSegments=0   MaxLength=0   MaxDegrees=0
   Frame=7   AutoMesh=Yes   AtJoints=Yes   AtFrames=No   NumSegments=0   MaxLength=0   MaxDegrees=0
   Frame=8   AutoMesh=Yes   AtJoints=Yes   AtFrames=No   NumSegments=0   MaxLength=0   MaxDegrees=0
   Frame=9   AutoMesh=Yes   AtJoints=Yes   AtFrames=No   NumSegments=0   MaxLength=0   MaxDegrees=0
   Frame=10   AutoMesh=Yes   AtJoints=Yes   AtFrames=No   NumSegments=0   MaxLength=0   MaxDegrees=0
   Frame=11   AutoMesh=Yes   AtJoints=Yes   AtFrames=No   NumSegments=0   MaxLength=0   MaxDegrees=0
   Frame=12   AutoMesh=Yes   AtJoints=Yes   AtFrames=No   NumSegments=0   MaxLength=0   MaxDegrees=0
   Frame=13   AutoMesh=Yes   AtJoints=Yes   AtFrames=No   NumSegments=0   MaxLength=0   MaxDegrees=0
   Frame=14   AutoMesh=Yes   AtJoints=Yes   AtFrames=No   NumSegments=0   MaxLength=0   MaxDegrees=0
   Frame=15   AutoMesh=Yes   AtJoints=Yes   AtFrames=No   NumSegments=0   MaxLength=0   MaxDegrees=0
   Frame=16   AutoMesh=Yes   AtJoints=Yes   AtFrames=No   NumSegments=0   MaxLength=0   MaxDegrees=0
   Frame=17   AutoMesh=Yes   AtJoints=Yes   AtFrames=No   NumSegments=0   MaxLength=0   MaxDegrees=0
   Frame=18   AutoMesh=Yes   AtJoints=Yes   AtFrames=No   NumSegments=0   MaxLength=0   MaxDegrees=0
   Frame=19   AutoMesh=Yes   AtJoints=Yes   AtFrames=No   NumSegments=0   MaxLength=0   MaxDegrees=0
   Frame=20   AutoMesh=Yes   AtJoints=Yes   AtFrames=No   NumSegments=0   MaxLength=0   MaxDegrees=0
   Frame=21   AutoMesh=Yes   AtJoints=Yes   AtFrames=No   NumSegments=0   MaxLength=0   MaxDegrees=0
   Frame=22   AutoMesh=Yes   AtJoints=Yes   AtFrames=No   NumSegments=0   MaxLength=0   MaxDegrees=0
   Frame=23   AutoMesh=Yes   AtJoints=Yes   AtFrames=No   NumSegments=0   MaxLength=0   MaxDegrees=0
# ... 96 like lines cut
 
TABLE:  "FRAME DESIGN PROCEDURES"
   Frame=4   DesignProc="From Material"
   Frame=5   DesignProc="From Material"
   Frame=6   DesignProc="From Material"
   Frame=7   DesignProc="From Material"
   Frame=8   DesignProc="From Material"
   Frame=9   DesignProc="From Material"
   Frame=10   DesignProc="From Material"
   Frame=11   DesignProc="From Material"
   Frame=12   DesignProc="From Material"
   Frame=13   DesignProc="From Material"
   Frame=14   DesignProc="From Material"
   Frame=15   DesignProc="From Material"
   Frame=16   DesignProc="From Material"
   Frame=17   DesignProc="From Material"
   Frame=18   DesignProc="From Material"
   Frame=19   DesignProc="From Material"
   Frame=20   DesignProc="From Material"
   Frame=21   DesignProc="From Material"
   Frame=22   DesignProc="From Material"
   Frame=23   DesignProc="From Material"
# ... 96 like lines cut
 
TABLE:  "FRAME LOAD TRANSFER OPTIONS"
   Frame=4   Transfer=Yes
   Frame=5   Transfer=Yes
   Frame=6   Transfer=Yes
   Frame=7   Transfer=Yes
   Frame=8   Transfer=Yes
   Frame=9   Transfer=Yes
   Frame=10   Transfer=Yes
   Frame=11   Transfer=Yes
   Frame=12   Transfer=Yes
   Frame=13   Transfer=Yes
   Frame=14   Transfer=Yes
   Frame=15   Transfer=Yes
   Frame=16   Transfer=Yes
   Frame=17   Transfer=Yes
   Frame=18   Transfer=Yes
   Frame=19   Transfer=Yes
   Frame=20   Transfer=Yes
   Frame=21   Transfer=Yes
   Frame=22   Transfer=Yes
   Frame=23   Transfer=Yes
# ... 96 like lines cut
 
TABLE:  "FRAME OUTPUT STATION ASSIGNMENTS"
   Frame=4   StationType=MinNumSta   MinNumSta=3   AddAtElmInt=Yes   AddAtPtLoad=Yes
   Frame=5   StationType=MinNumSta   MinNumSta=3   AddAtElmInt=Yes   AddAtPtLoad=Yes
   Frame=6   StationType=MinNumSta   MinNumSta=3   AddAtElmInt=Yes   AddAtPtLoad=Yes
   Frame=7   StationType=MinNumSta   MinNumSta=3   AddAtElmInt=Yes   AddAtPtLoad=Yes
   Frame=8   StationType=MinNumSta   MinNumSta=3   AddAtElmInt=Yes   AddAtPtLoad=Yes
   Frame=9   StationType=MinNumSta   MinNumSta=3   AddAtElmInt=Yes   AddAtPtLoad=Yes
   Frame=10   StationType=MinNumSta   MinNumSta=3   AddAtElmInt=Yes   AddAtPtLoad=Yes
   Frame=11   StationType=MinNumSta   MinNumSta=3   AddAtElmInt=Yes   AddAtPtLoad=Yes
   Frame=12   StationType=MinNumSta   MinNumSta=3   AddAtElmInt=Yes   AddAtPtLoad=Yes
   Frame=13   StationType=MinNumSta   MinNumSta=3   AddAtElmInt=Yes   AddAtPtLoad=Yes
   Frame=14   StationType=MinNumSta   MinNumSta=3   AddAtElmInt=Yes   AddAtPtLoad=Yes
   Frame=15   StationType=MinNumSta   MinNumSta=3   AddAtElmInt=Yes   AddAtPtLoad=Yes
   Frame=16   StationType=MinNumSta   MinNumSta=3   AddAtElmInt=Yes   AddAtPtLoad=Yes
   Frame=17   StationType=MinNumSta   MinNumSta=3   AddAtElmInt=Yes   AddAtPtLoad=Yes
   Frame=18   StationType=MinNumSta   MinNumSta=3   AddAtElmInt=Yes   AddAtPtLoad=Yes
   Frame=19   StationType=MinNumSta   MinNumSta=3   AddAtElmInt=Yes   AddAtPtLoad=Yes
   Frame=20   StationType=MinNumSta   MinNumSta=3   AddAtElmInt=Yes   AddAtPtLoad=Yes
   Frame=21   StationType=MinNumSta   MinNumSta=3   AddAtElmInt=Yes   AddAtPtLoad=Yes
   Frame=22   StationType=MinNumSta   MinNumSta=3   AddAtElmInt=Yes   AddAtPtLoad=Yes
   Frame=23   StationType=MinNumSta   MinNumSta=3   AddAtElmInt=Yes   AddAtPtLoad=Yes
# ... 32 like lines cut
   Frame=66   StationType=MaxStaSpcg   MaxStaSpcg=24   AddAtElmInt=Yes   AddAtPtLoad=Yes
   Frame=67   StationType=MaxStaSpcg   MaxStaSpcg=24   AddAtElmInt=Yes   AddAtPtLoad=Yes
   Frame=68   StationType=MaxStaSpcg   MaxStaSpcg=24   AddAtElmInt=Yes   AddAtPtLoad=Yes
   Frame=69   StationType=MaxStaSpcg   MaxStaSpcg=24   AddAtElmInt=Yes   AddAtPtLoad=Yes
   Frame=70   StationType=MaxStaSpcg   MaxStaSpcg=24   AddAtElmInt=Yes   AddAtPtLoad=Yes
   Frame=71   StationType=MaxStaSpcg   MaxStaSpcg=24   AddAtElmInt=Yes   AddAtPtLoad=Yes
   Frame=72   StationType=MaxStaSpcg   MaxStaSpcg=24   AddAtElmInt=Yes   AddAtPtLoad=Yes
   Frame=73   StationType=MaxStaSpcg   MaxStaSpcg=24   AddAtElmInt=Yes   AddAtPtLoad=Yes
   Frame=74   StationType=MaxStaSpcg   MaxStaSpcg=24   AddAtElmInt=Yes   AddAtPtLoad=Yes
   Frame=75   StationType=MaxStaSpcg   MaxStaSpcg=24   AddAtElmInt=Yes   AddAtPtLoad=Yes
   Frame=76   StationType=MaxStaSpcg   MaxStaSpcg=24   AddAtElmInt=Yes   AddAtPtLoad=Yes
   Frame=77   StationType=MaxStaSpcg   MaxStaSpcg=24   AddAtElmInt=Yes   AddAtPtLoad=Yes
   Frame=78   StationType=MaxStaSpcg   MaxStaSpcg=24   AddAtElmInt=Yes   AddAtPtLoad=Yes
   Frame=79   StationType=MaxStaSpcg   MaxStaSpcg=24   AddAtElmInt=Yes   AddAtPtLoad=Yes
   Frame=80   StationType=MaxStaSpcg   MaxStaSpcg=24   AddAtElmInt=Yes   AddAtPtLoad=Yes
   Frame=81   StationType=MaxStaSpcg   MaxStaSpcg=24   AddAtElmInt=Yes   AddAtPtLoad=Yes
   Frame=82   StationType=MaxStaSpcg   MaxStaSpcg=24   AddAtElmInt=Yes   AddAtPtLoad=Yes
   Frame=83   StationType=MaxStaSpcg   MaxStaSpcg=24   AddAtElmInt=Yes   AddAtPtLoad=Yes
   Frame=84   StationType=MaxStaSpcg   MaxStaSpcg=24   AddAtElmInt=Yes   AddAtPtLoad=Yes
   Frame=85   StationType=MaxStaSpcg   MaxStaSpcg=24   AddAtElmInt=Yes   AddAtPtLoad=Yes
# ... 44 like lines cut
 
TABLE:  "FRAME SECTION ASSIGNMENTS"
   Frame=4   AutoSelect=N.A.   AnalSect=CHS   MatProp=Default
   Frame=5   AutoSelect=N.A.   AnalSect=CHS   MatProp=Default
   Frame=6   AutoSelect=N.A.   AnalSect=CHS   MatProp=Default
   Frame=7   AutoSelect=N.A.   AnalSect=CHS   MatProp=Default
   Frame=8   AutoSelect=N.A.   AnalSect=CHS   MatProp=Default
   Frame=9   AutoSelect=N.A.   AnalSect=CHS   MatProp=Default
   Frame=10   AutoSelect=N.A.   AnalSect=CHS   MatProp=Default
   Frame=11   AutoSelect=N.A.   AnalSect=CHS   MatProp=Default
   Frame=12   AutoSelect=N.A.   AnalSect=CHS   MatProp=Default
   Frame=13   AutoSelect=N.A.   AnalSect=CHS   MatProp=Default
   Frame=14   AutoSelect=N.A.   AnalSect=CHS   MatProp=Default
   Frame=15   AutoSelect=N.A.   AnalSect=CHS   MatProp=Default
   Frame=16   AutoSelect=N.A.   AnalSect=CHS   MatProp=Default
   Frame=17   AutoSelect=N.A.   AnalSect=CHS   MatProp=Default
   Frame=18   AutoSelect=N.A.   AnalSect=CHS   MatProp=Default
   Frame=19   AutoSelect=N.A.   AnalSect=CHS   MatProp=Default
   Frame=20   AutoSelect=N.A.   AnalSect=CHS   MatProp=Default
   Frame=21   AutoSelect=N.A.   AnalSect=CHS   MatProp=Default
   Frame=22   AutoSelect=N.A.   AnalSect=CHS   MatProp=Default
   Frame=23   AutoSelect=N.A.   AnalSect=CHS   MatProp=Default
# ... 96 like lines cut
 
TABLE:  "FRAME SECTION PROPERTIES 01 - GENERAL"
   SectionName=CHS   Material=S275   Shape=General   t3=18   t2=10   Area=6,30851261702523   TorsConst=0   I33=0   I22=0   I23=0   AS2=0   AS3=0   S33=0   S22=0   Z33=0   Z22=0   R33=0   R22=0   EccV2=0   Color=Cyan   FromFile=No   AMod=1 _
        A2Mod=1   A3Mod=1   JMod=1   I2Mod=1   I3Mod=1   MMod=1   WMod=1   Notes="Added 17/09/2023 0:36:10"
 
TABLE:  "FRAME SECTION PROPERTIES 13 - TIME DEPENDENT"
   SectionName=CHS   TypeSize=None
 
TABLE:  "FUNCTION - POWER SPECTRAL DENSITY - USER"
   Name=UNIFPSD   Frequency=0   Value=1
   Name=UNIFPSD   Frequency=1   Value=1
 
TABLE:  "FUNCTION - RESPONSE SPECTRUM - USER"
   Name=UNIFRS   Period=0   Accel=1   FuncDamp=0,05
   Name=UNIFRS   Period=1   Accel=1
 
TABLE:  "FUNCTION - STEADY STATE - USER"
   Name=UNIFSS   Frequency=0   Value=1
   Name=UNIFSS   Frequency=1   Value=1
 
TABLE:  "FUNCTION - TIME HISTORY - USER"
   Name=RAMPTH   Time=0   Value=0
   Name=RAMPTH   Time=1   Value=1
   Name=RAMPTH   Time=4   Value=1
   Name=UNIFTH   Time=0   Value=1
   Name=UNIFTH   Time=1   Value=1
 
TABLE:  "GRID LINES"
   CoordSys=GLOBAL-1   AxisDir=X   XRYZCoord=0   LineType=Primary   LineColor=Gray8Dark   Visible=Yes   BubbleLoc=End   AllVisible=Yes   BubbleSize=96
   CoordSys=GLOBAL-1   AxisDir=X   XRYZCoord=49,6062992125984   LineType=Primary   LineColor=Gray8Dark   Visible=Yes   BubbleLoc=End
   CoordSys=GLOBAL-1   AxisDir=X   XRYZCoord=99,2125984251969   LineType=Primary   LineColor=Gray8Dark   Visible=Yes   BubbleLoc=End
   CoordSys=GLOBAL-1   AxisDir=X   XRYZCoord=148,818897637795   LineType=Primary   LineColor=Gray8Dark   Visible=Yes   BubbleLoc=End
   CoordSys=GLOBAL-1   AxisDir=X   XRYZCoord=198,425196850394   LineType=Primary   LineColor=Gray8Dark   Visible=Yes   BubbleLoc=End
   CoordSys=GLOBAL-1   AxisDir=X   XRYZCoord=248,031496062992   LineType=Primary   LineColor=Gray8Dark   Visible=Yes   BubbleLoc=End
   CoordSys=GLOBAL-1   AxisDir=X   XRYZCoord=297,637795275591   LineType=Primary   LineColor=Gray8Dark   Visible=Yes   BubbleLoc=End
   CoordSys=GLOBAL-1   AxisDir=X   XRYZCoord=347,244094488189   LineType=Primary   LineColor=Gray8Dark   Visible=Yes   BubbleLoc=End
   CoordSys=GLOBAL-1   AxisDir=X   XRYZCoord=396,850393700787   LineType=Primary   LineColor=Gray8Dark   Visible=Yes   BubbleLoc=End
   CoordSys=GLOBAL-1   AxisDir=X   XRYZCoord=446,456692913386   LineType=Primary   LineColor=Gray8Dark   Visible=Yes   BubbleLoc=End
   CoordSys=GLOBAL-1   AxisDir=X   XRYZCoord=496,062992125984   LineType=Primary   LineColor=Gray8Dark   Visible=Yes   BubbleLoc=End
   CoordSys=GLOBAL-1   AxisDir=X   XRYZCoord=545,669291338583   LineType=Primary   LineColor=Gray8Dark   Visible=Yes   BubbleLoc=End
   CoordSys=GLOBAL-1   AxisDir=X   XRYZCoord=595,275590551181   LineType=Primary   LineColor=Gray8Dark   Visible=Yes   BubbleLoc=End
   CoordSys=GLOBAL-1   AxisDir=X   XRYZCoord=644,88188976378   LineType=Primary   LineColor=Gray8Dark   Visible=Yes   BubbleLoc=End
   CoordSys=GLOBAL-1   AxisDir=X   XRYZCoord=694,488188976378   LineType=Primary   LineColor=Gray8Dark   Visible=Yes   BubbleLoc=End
   CoordSys=GLOBAL-1   AxisDir=X   XRYZCoord=744,094488188976   LineType=Primary   LineColor=Gray8Dark   Visible=Yes   BubbleLoc=End
   CoordSys=GLOBAL-1   AxisDir=X   XRYZCoord=793,700787401575   LineType=Primary   LineColor=Gray8Dark   Visible=Yes   BubbleLoc=End
   CoordSys=GLOBAL-1   AxisDir=X   XRYZCoord=843,307086614173   LineType=Primary   LineColor=Gray8Dark   Visible=Yes   BubbleLoc=End
   CoordSys=GLOBAL-1   AxisDir=X   XRYZCoord=892,913385826772   LineType=Primary   LineColor=Gray8Dark   Visible=Yes   BubbleLoc=End
   CoordSys=GLOBAL-1   AxisDir=X   XRYZCoord=942,51968503937   LineType=Primary   LineColor=Gray8Dark   Visible=Yes   BubbleLoc=End
   CoordSys=GLOBAL-1   AxisDir=X   XRYZCoord=992,125984251968   LineType=Primary   LineColor=Gray8Dark   Visible=Yes   BubbleLoc=End
# ... 8 like lines cut
   CoordSys=GLOBAL-1   AxisDir=Y   XRYZCoord=0   LineType=Primary   LineColor=Gray8Dark   Visible=Yes   BubbleLoc=Start
   CoordSys=GLOBAL-1   AxisDir=Y   XRYZCoord=49,6062992125984   LineType=Primary   LineColor=Gray8Dark   Visible=Yes   BubbleLoc=Start
   CoordSys=GLOBAL-1   AxisDir=Y   XRYZCoord=99,2125984251969   LineType=Primary   LineColor=Gray8Dark   Visible=Yes   BubbleLoc=Start
   CoordSys=GLOBAL-1   AxisDir=Z   XRYZCoord=-99,2125984251969   LineType=Primary   LineColor=Gray8Dark   Visible=Yes   BubbleLoc=End
   CoordSys=GLOBAL-1   AxisDir=Z   XRYZCoord=0   LineType=Primary   LineColor=Gray8Dark   Visible=Yes   BubbleLoc=End
 
TABLE:  "GROUPS 1 - DEFINITIONS"
   GroupName=ALL   Selection=Yes   SectionCut=Yes   Steel=Yes   Concrete=Yes   Aluminum=Yes   ColdFormed=Yes   Stage=Yes   Bridge=Yes   AutoSeismic=No   AutoWind=No   SelDesSteel=No   SelDesAlum=No   SelDesCold=No   MassWeight=Yes   Color=Red
 
TABLE:  "JOINT COORDINATES"
   Joint=1   CoordSys=GLOBAL-1   CoordType=Cartesian   XorR=0   Y=0   Z=0   SpecialJt=No   GUID=8898d24f-a278-4d78-b112-77b16b46f38f
   Joint=5   CoordSys=GLOBAL-1   CoordType=Cartesian   XorR=0   Y=99,2125984251969   Z=0   SpecialJt=No   GUID=8898d24f-a278-4d78-b112-77b16b46f38f
   Joint=6   CoordSys=GLOBAL-1   CoordType=Cartesian   XorR=99,2125984251969   Y=49,6062992125984   Z=-99,2125984251969   SpecialJt=No   GUID=8898d24f-a278-4d78-b112-77b16b46f38f
   Joint=7   CoordSys=GLOBAL-1   CoordType=Cartesian   XorR=148,818897637795   Y=99,2125984251969   Z=0   SpecialJt=No   GUID=8898d24f-a278-4d78-b112-77b16b46f38f
   Joint=8   CoordSys=GLOBAL-1   CoordType=Cartesian   XorR=198,425196850394   Y=49,6062992125984   Z=-99,2125984251969   SpecialJt=No   GUID=8898d24f-a278-4d78-b112-77b16b46f38f
   Joint=9   CoordSys=GLOBAL-1   CoordType=Cartesian   XorR=248,031496062992   Y=99,2125984251969   Z=0   SpecialJt=No   GUID=8898d24f-a278-4d78-b112-77b16b46f38f
   Joint=10   CoordSys=GLOBAL-1   CoordType=Cartesian   XorR=297,637795275591   Y=49,6062992125984   Z=-99,2125984251969   SpecialJt=No   GUID=8898d24f-a278-4d78-b112-77b16b46f38f
   Joint=11   CoordSys=GLOBAL-1   CoordType=Cartesian   XorR=347,244094488189   Y=99,2125984251969   Z=0   SpecialJt=No   GUID=8898d24f-a278-4d78-b112-77b16b46f38f
   Joint=12   CoordSys=GLOBAL-1   CoordType=Cartesian   XorR=396,850393700787   Y=49,6062992125984   Z=-99,2125984251969   SpecialJt=No   GUID=8898d24f-a278-4d78-b112-77b16b46f38f
   Joint=13   CoordSys=GLOBAL-1   CoordType=Cartesian   XorR=446,456692913386   Y=99,2125984251969   Z=0   SpecialJt=No   GUID=8898d24f-a278-4d78-b112-77b16b46f38f
   Joint=14   CoordSys=GLOBAL-1   CoordType=Cartesian   XorR=496,062992125984   Y=49,6062992125984   Z=-99,2125984251969   SpecialJt=No   GUID=8898d24f-a278-4d78-b112-77b16b46f38f
   Joint=15   CoordSys=GLOBAL-1   CoordType=Cartesian   XorR=545,669291338583   Y=99,2125984251969   Z=0   SpecialJt=No   GUID=8898d24f-a278-4d78-b112-77b16b46f38f
   Joint=16   CoordSys=GLOBAL-1   CoordType=Cartesian   XorR=595,275590551181   Y=49,6062992125984   Z=-99,2125984251969   SpecialJt=No   GUID=8898d24f-a278-4d78-b112-77b16b46f38f
   Joint=17   CoordSys=GLOBAL-1   CoordType=Cartesian   XorR=644,88188976378   Y=99,2125984251969   Z=0   SpecialJt=No   GUID=8898d24f-a278-4d78-b112-77b16b46f38f
   Joint=18   CoordSys=GLOBAL-1   CoordType=Cartesian   XorR=694,488188976378   Y=49,6062992125984   Z=-99,2125984251969   SpecialJt=No   GUID=8898d24f-a278-4d78-b112-77b16b46f38f
   Joint=19   CoordSys=GLOBAL-1   CoordType=Cartesian   XorR=744,094488188976   Y=99,2125984251969   Z=0   SpecialJt=No   GUID=8898d24f-a278-4d78-b112-77b16b46f38f
   Joint=20   CoordSys=GLOBAL-1   CoordType=Cartesian   XorR=793,700787401575   Y=49,6062992125984   Z=-99,2125984251969   SpecialJt=No   GUID=8898d24f-a278-4d78-b112-77b16b46f38f
   Joint=21   CoordSys=GLOBAL-1   CoordType=Cartesian   XorR=843,307086614173   Y=99,2125984251969   Z=0   SpecialJt=No   GUID=8898d24f-a278-4d78-b112-77b16b46f38f
   Joint=22   CoordSys=GLOBAL-1   CoordType=Cartesian   XorR=892,913385826772   Y=49,6062992125984   Z=-99,2125984251969   SpecialJt=No   GUID=8898d24f-a278-4d78-b112-77b16b46f38f
   Joint=23   CoordSys=GLOBAL-1   CoordType=Cartesian   XorR=942,51968503937   Y=99,2125984251969   Z=0   SpecialJt=No   GUID=8898d24f-a278-4d78-b112-77b16b46f38f
# ... 21 like lines cut
 
TABLE:  "JOINT LOADS - FORCE"
   Joint=1   LoadPat=G+Q   CoordSys=GLOBAL   F1=0   F2=0   F3=-1,52870068085631   M1=0   M2=0   M3=0   GUID=487ac147-839b-4d4f-bb67-c4d4ca683534
   Joint=5   LoadPat=G+Q   CoordSys=GLOBAL   F1=0   F2=0   F3=-1,52870068085631   M1=0   M2=0   M3=0   GUID=be08a6a3-2c70-4751-820e-745c8db753dc
   Joint=6   LoadPat=G+Q   CoordSys=GLOBAL   F1=0   F2=0   F3=-1,46350609299626   M1=0   M2=0   M3=0   GUID=3e87af46-bd05-48e1-a8dd-3718f2676859
   Joint=7   LoadPat=G+Q   CoordSys=GLOBAL   F1=0   F2=0   F3=-2,54708510501499   M1=0   M2=0   M3=0   GUID=b5dda62c-1d1e-4933-8d88-04420ab326ea
   Joint=8   LoadPat=G+Q   CoordSys=GLOBAL   F1=0   F2=0   F3=-2,92701218599252   M1=0   M2=0   M3=0   GUID=932da8df-a265-48fc-9666-1fcdb38b7dd1
   Joint=9   LoadPat=G+Q   CoordSys=GLOBAL   F1=0   F2=0   F3=-2,03676884831737   M1=0   M2=0   M3=0   GUID=6d39e424-f3bb-4b9d-a2a3-bba8718b4610
   Joint=10   LoadPat=G+Q   CoordSys=GLOBAL   F1=0   F2=0   F3=-2,92701218599252   M1=0   M2=0   M3=0   GUID=17fe89e2-2944-43a8-8454-244932b19df9
   Joint=11   LoadPat=G+Q   CoordSys=GLOBAL   F1=0   F2=0   F3=-2,03676884831737   M1=0   M2=0   M3=0   GUID=d771f672-50a6-4344-9448-04b2a03e3726
   Joint=12   LoadPat=G+Q   CoordSys=GLOBAL   F1=0   F2=0   F3=-2,92701218599252   M1=0   M2=0   M3=0   GUID=f9ab30e1-48ee-4a4a-a1c8-909aab0c683e
   Joint=13   LoadPat=G+Q   CoordSys=GLOBAL   F1=0   F2=0   F3=-2,03676884831737   M1=0   M2=0   M3=0   GUID=27de9017-4fda-48ba-934b-5776526bc35c
   Joint=14   LoadPat=G+Q   CoordSys=GLOBAL   F1=0   F2=0   F3=-2,92701218599252   M1=0   M2=0   M3=0   GUID=7b9b84a0-749b-4d26-90fc-8f09c61749d9
   Joint=15   LoadPat=G+Q   CoordSys=GLOBAL   F1=0   F2=0   F3=-2,03676884831737   M1=0   M2=0   M3=0   GUID=749353ea-516c-464d-8442-db6eb265b960
   Joint=16   LoadPat=G+Q   CoordSys=GLOBAL   F1=0   F2=0   F3=-2,92701218599252   M1=0   M2=0   M3=0   GUID=7b2c1828-56d8-48b0-bed1-5e2c618b078c
   Joint=17   LoadPat=G+Q   CoordSys=GLOBAL   F1=0   F2=0   F3=-2,03676884831737   M1=0   M2=0   M3=0   GUID=ba09c30e-bbdd-4680-8108-ab6278a087d4
   Joint=18   LoadPat=G+Q   CoordSys=GLOBAL   F1=0   F2=0   F3=-2,92701218599252   M1=0   M2=0   M3=0   GUID=ec718e50-2db0-44c6-a02c-5645bd10d8bf
   Joint=19   LoadPat=G+Q   CoordSys=GLOBAL   F1=0   F2=0   F3=-2,03676884831737   M1=0   M2=0   M3=0   GUID=0f9af360-7f40-474e-b94a-6c59169501c2
   Joint=20   LoadPat=G+Q   CoordSys=GLOBAL   F1=0   F2=0   F3=-2,92701218599252   M1=0   M2=0   M3=0   GUID=faaa970d-87f7-4c85-96ce-5bce39077406
   Joint=21   LoadPat=G+Q   CoordSys=GLOBAL   F1=0   F2=0   F3=-2,03676884831737   M1=0   M2=0   M3=0   GUID=e46a3206-efe3-43a8-830e-2ad3742b48c2
   Joint=22   LoadPat=G+Q   CoordSys=GLOBAL   F1=0   F2=0   F3=-2,92701218599252   M1=0   M2=0   M3=0   GUID=def4b3d9-7dc8-44bb-9e5b-ed60bfd54e57
   Joint=23   LoadPat=G+Q   CoordSys=GLOBAL   F1=0   F2=0   F3=-2,03676884831737   M1=0   M2=0   M3=0   GUID=3634a153-8365-46b4-aca8-eed0cccf6719
   Joint=24   LoadPat=G+Q   CoordSys=GLOBAL   F1=0   F2=0   F3=-2,92701218599252   M1=0   M2=0   M3=0   GUID=271deecb-ab98-4932-8b22-4aa499753cf6
   Joint=25   LoadPat=G+Q   CoordSys=GLOBAL   F1=0   F2=0   F3=-2,03676884831737   M1=0   M2=0   M3=0   GUID=624874b9-d27b-46d4-a7d5-109fd0dcb70f
   Joint=26   LoadPat=G+Q   CoordSys=GLOBAL   F1=0   F2=0   F3=-2,92701218599252   M1=0   M2=0   M3=0   GUID=afc56c5e-0f19-45a4-b7ea-35f1e099d850
   Joint=27   LoadPat=G+Q   CoordSys=GLOBAL   F1=0   F2=0   F3=-2,03676884831737   M1=0   M2=0   M3=0   GUID=dffab2a2-761a-485c-a60a-4283c74fe31a
   Joint=28   LoadPat=G+Q   CoordSys=GLOBAL   F1=0   F2=0   F3=-2,92701218599252   M1=0   M2=0   M3=0   GUID=6c4c691b-4374-47bf-afff-6d9bb96694a6
   Joint=29   LoadPat=G+Q   CoordSys=GLOBAL   F1=0   F2=0   F3=-2,54708510501499   M1=0   M2=0   M3=0   GUID=e9868a6d-661c-4b7c-89c0-0db3586820a8
   Joint=30   LoadPat=G+Q   CoordSys=GLOBAL   F1=0   F2=0   F3=-1,46350609299626   M1=0   M2=0   M3=0   GUID=05cff870-f5a2-4411-b75c-23541426dd3f
   Joint=31   LoadPat=G+Q   CoordSys=GLOBAL   F1=0   F2=0   F3=-1,52870068085631   M1=0   M2=0   M3=0   GUID=b8472d6c-b360-4cf9-bfee-4cd407db76d2
   Joint=32   LoadPat=G+Q   CoordSys=GLOBAL   F1=0   F2=0   F3=-2,54708510501499   M1=0   M2=0   M3=0   GUID=b1c69f48-bd5c-4f91-8e90-0e76748ed146
   Joint=33   LoadPat=G+Q   CoordSys=GLOBAL   F1=0   F2=0   F3=-2,03676884831737   M1=0   M2=0   M3=0   GUID=29969037-8eaa-466e-99b9-aafe617790bf
   Joint=34   LoadPat=G+Q   CoordSys=GLOBAL   F1=0   F2=0   F3=-2,03676884831737   M1=0   M2=0   M3=0   GUID=e8d9bb25-d4b9-49e2-931b-be5ba8bffdab
   Joint=36   LoadPat=G+Q   CoordSys=GLOBAL   F1=0   F2=0   F3=-2,03676884831737   M1=0   M2=0   M3=0   GUID=40692cd6-9b3b-4464-b022-2ef6449f2fe5
   Joint=37   LoadPat=G+Q   CoordSys=GLOBAL   F1=0   F2=0   F3=-2,03676884831737   M1=0   M2=0   M3=0   GUID=63aa718c-766b-4878-8054-8c3bed4cd9fc
   Joint=40   LoadPat=G+Q   CoordSys=GLOBAL   F1=0   F2=0   F3=-2,03676884831737   M1=0   M2=0   M3=0   GUID=e3ff48da-2c26-43cf-bb12-8d68ddee0dff
   Joint=41   LoadPat=G+Q   CoordSys=GLOBAL   F1=0   F2=0   F3=-2,54708510501499   M1=0   M2=0   M3=0   GUID=f758502e-e58b-489f-a253-4dbcbcf4bac6
   Joint=42   LoadPat=G+Q   CoordSys=GLOBAL   F1=0   F2=0   F3=-1,52870068085631   M1=0   M2=0   M3=0   GUID=2f1731ff-c618-45c2-b7ae-4e2dd89f00d6
   Joint=43   LoadPat=G+Q   CoordSys=GLOBAL   F1=0   F2=0   F3=-2,03676884831737   M1=0   M2=0   M3=0   GUID=05425b60-f241-4817-a79e-0542cf57abab
   Joint=44   LoadPat=G+Q   CoordSys=GLOBAL   F1=0   F2=0   F3=-2,03676884831737   M1=0   M2=0   M3=0   GUID=785b907f-ac34-4186-87c6-521e466ebe65
   Joint=45   LoadPat=G+Q   CoordSys=GLOBAL   F1=0   F2=0   F3=-2,03676884831737   M1=0   M2=0   M3=0   GUID=5e218f28-e082-4771-9a5c-72f052e3db82
   Joint=46   LoadPat=G+Q   CoordSys=GLOBAL   F1=0   F2=0   F3=-2,03676884831737   M1=0   M2=0   M3=0   GUID=0d362754-ac0b-47f8-8949-d9ad8bf2ff60
   Joint=47   LoadPat=G+Q   CoordSys=GLOBAL   F1=0   F2=0   F3=-2,03676884831737   M1=0   M2=0   M3=0   GUID=4d35f083-2a1c-4c73-ade6-e98741cc39c7
 
TABLE:  "JOINT PATTERN DEFINITIONS"
   Pattern=Default
 
TABLE:  "JOINT RESTRAINT ASSIGNMENTS"
   Joint=1   U1=Yes   U2=Yes   U3=Yes   R1=No   R2=No   R3=No
   Joint=5   U1=No   U2=No   U3=Yes   R1=No   R2=No   R3=No
   Joint=31   U1=No   U2=No   U3=Yes   R1=No   R2=No   R3=No
   Joint=42   U1=No   U2=Yes   U3=Yes   R1=No   R2=No   R3=No
 
TABLE:  "LOAD CASE DEFINITIONS"
   Case=DEAD   Type=LinStatic   InitialCond=Zero   DesTypeOpt="Prog Det"   DesignType=DEAD   DesActOpt="Prog Det"   DesignAct=Non-Composite   AutoType=None   RunCase=Yes
   Case=MODAL   Type=LinModal   InitialCond=Zero   DesTypeOpt="Prog Det"   DesignType=OTHER   DesActOpt="Prog Det"   DesignAct=Other   AutoType=None   RunCase=Yes
   Case=G+Q   Type=LinStatic   InitialCond=Zero   DesTypeOpt="Prog Det"   DesignType=DEAD   DesActOpt="Prog Det"   DesignAct=Non-Composite   AutoType=None   RunCase=Yes
 
TABLE:  "LOAD PATTERN DEFINITIONS"
   LoadPat=DEAD   DesignType=DEAD   SelfWtMult=1   GUID=7620e8cc-4ab0-4ad6-b44f-fb36b8b31e28
   LoadPat=G+Q   DesignType=DEAD   SelfWtMult=0   GUID=f52c49af-d9b0-469b-a4be-4bd1a1a3da23
 
TABLE:  "MASS SOURCE"
   MassSource=MSSSRC1   Elements=Yes   Masses=Yes   Loads=No   IsDefault=Yes
 
TABLE:  "MATERIAL PROPERTIES 01 - GENERAL"
   Material=4000Psi   Type=Concrete   SymType=Isotropic   TempDepend=No   Color=Red   Notes="Customary f'c 4000 psi 17/09/2023 0:31:30"
   Material=A992Fy50   Type=Steel   SymType=Isotropic   TempDepend=No   Color=Cyan   Notes="ASTM A992 Grade 50 17/09/2023 0:31:30"
   Material=S275   Type=Steel   SymType=Isotropic   TempDepend=No   Color=Green   Notes="Europe EN 1993-1-1 per EN 10025-2 S275 added 17/09/2023 0:37:18"
 
TABLE:  "MATERIAL PROPERTIES 02 - BASIC MECHANICAL PROPERTIES"
   Material=4000Psi   UnitWeight=8,680555556E-05   UnitMass=2,248332521E-07   E1=3604,9965   G12=1502,081875   U12=0,2   A1=5,5E-06
   Material=A992Fy50   UnitWeight=0,000283564814814815   UnitMass=7,34455290352564E-07   E1=29000   G12=11153,8461538462   U12=0,3   A1=6,5E-06
   Material=S275   UnitWeight=0,000283564814814815   UnitMass=7,34455290352564E-07   E1=30457,9222889505   G12=11714,5854957502   U12=0,3   A1=6,50000030994415E-06
 
TABLE:  "MATERIAL PROPERTIES 03A - STEEL DATA"
   Material=A992Fy50   Fy=50   Fu=65   EffFy=55   EffFu=71,5   SSCurveOpt=Simple   SSHysType=Kinematic   SHard=0,015   SMax=0,11   SRup=0,17   FinalSlope=-0,1
   Material=S275   Fy=39,8853744260066   Fu=62,3662218297558   EffFy=43,8739118686073   EffFu=68,6028440127314   SSCurveOpt=Simple   SSHysType=Kinematic   SHard=0,015   SMax=0,11   SRup=0,17   FinalSlope=-0,1
 
TABLE:  "MATERIAL PROPERTIES 03B - CONCRETE DATA"
   Material=4000Psi   Fc=4   LtWtConc=No   SSCurveOpt=Mander   SSHysType=Takeda   SFc=0,00221914   SCap=0,005   FinalSlope=-0,1   FAngle=0   DAngle=0
 
TABLE:  "MATERIAL PROPERTIES 06 - DAMPING PARAMETERS"
   Material=4000Psi   ModalRatio=0   VisMass=0   VisStiff=0   HysMass=0   HysStiff=0
   Material=A992Fy50   ModalRatio=0   VisMass=0   VisStiff=0   HysMass=0   HysStiff=0
   Material=S275   ModalRatio=0   VisMass=0   VisStiff=0   HysMass=0   HysStiff=0
 
TABLE:  "OPTIONS - COLORS - DISPLAY"
   DeviceType=Screen   Points=Blue   LinesFrame=Blue   LinesFrmDL=Blue   LinesCable=Green   LinesTendon=Green   SpringLinks=Green   Restraints=Green   Releases=Green   Axes=Cyan   Text=Black   ShadowLines=Gray8Dark   GuideLines=Gray8Dark _
        Highlight=Red   Selection=10504778   AreaFillBot=Red   AreaFillTop=16744703   AreaFillSd=Red   AreaEdge=DarkRed   SolidF1=Red   SolidF2=Blue   SolidF3=Green   SolidF4=Yellow   SolidF5=White   SolidF6=Cyan   SolidEdge=DarkRed _
        Floor=Gray4   Background=White   BGLowLeft=White   BGLowRight=White   BGUpRight=White   Darkness=0,5
   DeviceType=Printer   Points=Gray8Dark   LinesFrame=Black   LinesFrmDL=Gray4   LinesCable=Black   LinesTendon=Black   SpringLinks=Gray8Dark   Restraints=Gray8Dark   Releases=Gray4   Axes=Black   Text=Black   ShadowLines=Gray4 _
        GuideLines=Gray4   Highlight=Black   Selection=Black   AreaFillBot=Gray4   AreaFillTop=Gray8Dark   AreaFillSd=Gray4   AreaEdge=Black   SolidF1=Gray1Light   SolidF2=Gray2   SolidF3=Gray3   SolidF4=Gray4   SolidF5=Gray5 _
        SolidF6=Gray6   SolidEdge=Black   Floor=Gray4   Background=White   BGLowLeft=White   BGLowRight=White   BGUpRight=White   Darkness=0,5
   DeviceType="Color Printer"   Points=Blue   LinesFrame=Blue   LinesFrmDL=Blue   LinesCable=Green   LinesTendon=Green   SpringLinks=Green   Restraints=Green   Releases=Green   Axes=Cyan   Text=Black   ShadowLines=Gray8Dark _
        GuideLines=Gray8Dark   Highlight=Red   Selection=10504778   AreaFillBot=Red   AreaFillTop=16744703   AreaFillSd=Red   AreaEdge=DarkRed   SolidF1=Red   SolidF2=Blue   SolidF3=Green   SolidF4=Yellow   SolidF5=White   SolidF6=Cyan _
        SolidEdge=DarkRed   Floor=Gray4   Background=White   BGLowLeft=White   BGLowRight=White   BGUpRight=White   Darkness=0,5
 
TABLE:  "OPTIONS - COLORS - OUTPUT"
   DeviceType=Screen   Contour1=13107400   Contour2=6553828   Contour3=Red   Contour4=16639   Contour5=Orange   Contour6=43775   Contour7=54527   Contour8=Yellow   Contour9=65408   Contour10=Green   Contour11=8453888   Contour12=Cyan _
        Contour13=16755200   Contour14=16733440   Contour15=Blue   Transpare=0,5   Ratio1=Cyan   Ratio2=Green   Ratio3=Yellow   Ratio4=Orange   Ratio5=Red   RatioNotD=Gray4   RatioNotC=Red   RatioVal1=0,5   RatioVal2=0,7   RatioVal3=0,9 _
        RatioVal4=1   DFillPos=Blue   DFillNeg=Red   DFillRPos=Green   DFillRNeg=Green
   DeviceType=Printer   Contour1=Black   Contour2=3158064   Contour3=4210752   Contour4=5263440   Contour5=6316128   Contour6=7368816   Contour7=Gray8Dark   Contour8=Gray7   Contour9=Gray6   Contour10=Gray5   Contour11=Gray4 _
        Contour12=Gray3   Contour13=Gray2   Contour14=Gray1Light   Contour15=White   Transpare=0   Ratio1=Gray2   Ratio2=Gray4   Ratio3=Gray8Dark   Ratio4=4210752   Ratio5=Black   RatioNotD=Gray4   RatioNotC=Black   RatioVal1=0,5 _
        RatioVal2=0,7   RatioVal3=0,9   RatioVal4=1   DFillPos=Gray8Dark   DFillNeg=Gray8Dark   DFillRPos=4210752   DFillRNeg=4210752
   DeviceType="Color Printer"   Contour1=13107400   Contour2=6553828   Contour3=Red   Contour4=16639   Contour5=Orange   Contour6=43775   Contour7=54527   Contour8=Yellow   Contour9=65408   Contour10=Green   Contour11=8453888 _
        Contour12=Cyan   Contour13=16755200   Contour14=16733440   Contour15=Blue   Transpare=0   Ratio1=Cyan   Ratio2=Green   Ratio3=Yellow   Ratio4=Orange   Ratio5=Red   RatioNotD=Gray4   RatioNotC=Red   RatioVal1=0,5   RatioVal2=0,7 _
        RatioVal3=0,9   RatioVal4=1   DFillPos=Blue   DFillNeg=Red   DFillRPos=Green   DFillRNeg=Green
 
TABLE:  "PREFERENCES - ALUMINUM DESIGN - AA-ASD 2000"
   THDesign=Envelopes   FrameType="Moment Frame"   SRatioLimit=1   MaxIter=1   LatFact=1,33333333333333   UseLatFact=No   Bridge=No
 
TABLE:  "PREFERENCES - COLD FORMED DESIGN - AISI-ASD96"
   THDesign=Envelopes   FrameType="Braced Frame"   SRatioLimit=1   MaxIter=1   OmegaBS=1,67   OmegaBUS=1,67   OmegaBLTB=1,67   OmegaVS=1,67   OmegaVNS=1,5   OmegaT=1,67   OmegaC=1,8
 
TABLE:  "PREFERENCES - CONCRETE DESIGN - ACI 318-14"
   THDesign=Envelopes   NumCurves=24   NumPoints=11   MinEccen=Yes   PatLLF=0,75   UFLimit=0,95   SeisCat=D   Rho=1   Sds=0,5   PhiT=0,9   PhiCTied=0,65   PhiCSpiral=0,75   PhiV=0,75   PhiVSeismic=0,6   PhiVJoint=0,85
 
TABLE:  "PREFERENCES - DIMENSIONAL"
   MergeTol=0,1   FineGrid=12   Nudge=12   SelectTol=3   SnapTol=12   SLineThick=2   PLineThick=4   MaxFont=8   MinFont=3   AutoZoom=10   ShrinkFact=70   TextFileLen=240
 
TABLE:  "PREFERENCES - STEEL DESIGN - AISC 360-10"
   THDesign=Envelopes   FrameType=SMF   PatLLF=0,75   SRatioLimit=0,95   MaxIter=1   SDC=D   SeisCode=Yes   SeisLoad=Yes   ImpFactor=1   SystemRho=1   SystemSds=0,5   SystemR=8   SystemCd=5,5   Omega0=3   Provision=LRFD _
        AMethod="Direct Analysis"   SOMethod="General 2nd Order"   SRMethod="Tau-b Fixed"   NLCoeff=0,002   PhiB=0,9   PhiC=0,9   PhiTY=0,9   PhiTF=0,75   PhiV=0,9   PhiVRolledI=1   PhiVT=0,9   PlugWeld=Yes   HSSWelding=ERW   HSSReduceT=No _
        CheckDefl=No   DLRat=120   SDLAndLLRat=120   LLRat=360   TotalRat=240   NetRat=240
 
TABLE:  "PROGRAM CONTROL"
   ProgramName=SAP2000   Version=18.1.1   CurrUnits="Kip, in, F"   SteelCode="AISC 360-10"   ConcCode="ACI 318-14"   AlumCode="AA-ASD 2000"   ColdCode=AISI-ASD96   RegenHinge=Yes
 
TABLE:  "PROJECT INFORMATION"
   Item="Company Name"
   Item="Client Name"
   Item="Project Name"
   Item="Project Number"
   Item="Model Name"
   Item="Model Description"
   Item="Revision Number"
   Item="Frame Type"
   Item=Engineer
   Item=Checker
   Item=Supervisor
   Item="Issue Code"
   Item="Design Code"
 
TABLE:  "REBAR SIZES"
   RebarID=#2   Area=0,05   Diameter=0,25
   RebarID=#3   Area=0,109999999403954   Diameter=0,375
   RebarID=#4   Area=0,200000002980232   Diameter=0,5
   RebarID=#5   Area=0,310000002384186   Diameter=0,625
   RebarID=#6   Area=0,439999997615814   Diameter=0,75
   RebarID=#7   Area=0,600000023841858   Diameter=0,875
   RebarID=#8   Area=0,790000021457672   Diameter=1
   RebarID=#9   Area=1   Diameter=1,12800002098083
   RebarID=#10   Area=1,26999998092651   Diameter=1,26999998092651
   RebarID=#11   Area=1,55999994277954   Diameter=1,4099999666214
   RebarID=#14   Area=2,25   Diameter=1,692999958992
   RebarID=#18   Area=4   Diameter=2,25699996948242
   RebarID=10M   Area=0,155000314116478   Diameter=0,444881916046143
   RebarID=15M   Area=0,310000628232956   Diameter=0,62992125749588
   RebarID=20M   Area=0,465000957250595   Diameter=0,767716526985168
   RebarID=25M   Area=0,775001585483551   Diameter=0,992126047611237
   RebarID=30M   Area=1,08500218391418   Diameter=1,17716538906097
   RebarID=35M   Area=1,5500031709671   Diameter=1,4055118560791
   RebarID=45M   Area=2,3250048160553   Diameter=1,72047245502472
   RebarID=55M   Area=3,87500786781311   Diameter=2,22047257423401
   RebarID=6d   Area=0,0438650883734226   Diameter=0,236220479011536
   RebarID=8d   Area=0,0779651552438736   Diameter=0,31496062874794
   RebarID=10d   Area=0,121675245463848   Diameter=0,393700778484344
   RebarID=12d   Area=0,175150364637375   Diameter=0,472440958023071
   RebarID=14d   Area=0,238700494170189   Diameter=0,551181137561798
   RebarID=16d   Area=0,31155064702034   Diameter=0,62992125749588
   RebarID=20d   Area=0,486700981855392   Diameter=0,787401556968689
   RebarID=25d   Area=0,761051535606384   Diameter=0,984251976013184
   RebarID=26d   Area=0,823051691055298   Diameter=1,02362203598022
   RebarID=28d   Area=0,954801976680756   Diameter=1,1023622751236
   RebarID=N12   Area=0,175150364637375   Diameter=0,472440958023071
   RebarID=N16   Area=0,31155064702034   Diameter=0,62992125749588
   RebarID=N20   Area=0,486700981855392   Diameter=0,787401556968689
   RebarID=N24   Area=0,7006014585495   Diameter=0,944881916046143
   RebarID=N28   Area=0,954801976680756   Diameter=1,1023622751236
   RebarID=N32   Area=1,24620258808136   Diameter=1,25984251499176
   RebarID=N36   Area=1,58100318908691   Diameter=1,41732287406921
 
END TABLE DATA
