File C:\Users\upm\Documents\SAP modelo 1.$2k was saved on m/d/yy at h:mm:ss
 
TABLE:  "ACTIVE DEGREES OF FREEDOM"
   UX=Yes   UY=No   UZ=Yes   RX=No   RY=Yes   RZ=No
 
TABLE:  "ANALYSIS OPTIONS"
   Solver=Advanced   SolverProc=Auto   Force32Bit=No   StiffCase=None   GeomMod=None
 
TABLE:  "AUTO WAVE 3 - WAVE CHARACTERISTICS - GENERAL"
   WaveChar=Default   WaveType="From Theory"   KinFactor=1   SWaterDepth=1800   WaveHeight=720   WavePeriod=12   WaveTheory=Linear
 
TABLE:  "CASE - MODAL 1 - GENERAL"
   Case=MODAL   ModeType=Eigen   MaxNumModes=12   MinNumModes=1   EigenShift=0   EigenCutoff=0   EigenTol=1E-09   AutoShift=Yes
 
TABLE:  "CASE - STATIC 1 - LOAD ASSIGNMENTS"
   Case=G+Q   LoadType="Load pattern"   LoadName=G+Q   LoadSF=1
 
TABLE:  "CONNECTIVITY - FRAME"
   Frame=1   JointI=1   JointJ=2   IsCurved=No   GUID=b46bcbae-8f54-426b-bc97-471d4f714e35
   Frame=2   JointI=2   JointJ=3   IsCurved=No   GUID=b221565e-b3cf-4725-a4d5-9e74f22ecc04
   Frame=3   JointI=3   JointJ=4   IsCurved=No   GUID=10e5d383-a431-44df-b919-bfbcb5658dd0
   Frame=4   JointI=4   JointJ=5   IsCurved=No   GUID=a4ddfdc7-3a08-4e7f-9762-4bbf94d99bff
   Frame=11   JointI=1   JointJ=12   IsCurved=No   GUID=3de2b5d7-2afb-4f98-a0c0-4e5d336db22c
   Frame=12   JointI=12   JointJ=2   IsCurved=No   GUID=4d05c94f-ca31-4529-a273-34a0372782ac
   Frame=13   JointI=2   JointJ=13   IsCurved=No   GUID=496b431a-0fc2-4d6b-a9de-b5a4875e7485
   Frame=14   JointI=13   JointJ=3   IsCurved=No   GUID=439d7b92-bd43-411e-b358-309cf5f93025
   Frame=15   JointI=3   JointJ=14   IsCurved=No   GUID=e0c55208-1404-4755-873e-cd405db300e3
   Frame=16   JointI=14   JointJ=4   IsCurved=No   GUID=cdade175-67dd-40ee-8ba5-a5c5d0f02f4a
   Frame=17   JointI=4   JointJ=15   IsCurved=No   GUID=a5858166-47df-4672-ac98-7c54280479be
   Frame=18   JointI=15   JointJ=5   IsCurved=No   GUID=181924cd-6778-4dd0-a457-b6592c851d0d
   Frame=19   JointI=11   JointJ=5   IsCurved=No   GUID=ba9d1946-a39b-409d-8083-8122f15a9ecc
   Frame=20   JointI=1   JointJ=7   IsCurved=No   GUID=b838f782-b72d-4984-8784-fd9494445195
   Frame=21   JointI=7   JointJ=12   IsCurved=No   GUID=5ebfd82a-26e7-4831-aea2-fd70207551ab
   Frame=22   JointI=12   JointJ=13   IsCurved=No   GUID=81cada54-2b33-4431-9f8e-d8d8dca3f98e
   Frame=23   JointI=13   JointJ=14   IsCurved=No   GUID=18bd6433-b138-40ed-a61d-f25650d095f0
   Frame=24   JointI=14   JointJ=15   IsCurved=No   GUID=17ac21d4-77e4-4c43-99e7-28f22f5bedf1
   Frame=25   JointI=15   JointJ=11   IsCurved=No   GUID=f1415aec-bd47-4483-a37a-67e885e43fc5
 
TABLE:  "COORDINATE SYSTEMS"
   Name=GLOBAL   Type=Cartesian   X=0   Y=0   Z=0   AboutZ=0   AboutY=0   AboutX=0
 
TABLE:  "DATABASE DOCUMENTATION"
 
TABLE:  "DATABASE FORMAT TYPES"
   UnitsCurr=Yes   OverrideE=No
 
TABLE:  "FRAME AUTO MESH ASSIGNMENTS"
   Frame=1   AutoMesh=Yes   AtJoints=Yes   AtFrames=No   NumSegments=0   MaxLength=0   MaxDegrees=0
   Frame=2   AutoMesh=Yes   AtJoints=Yes   AtFrames=No   NumSegments=0   MaxLength=0   MaxDegrees=0
   Frame=3   AutoMesh=Yes   AtJoints=Yes   AtFrames=No   NumSegments=0   MaxLength=0   MaxDegrees=0
   Frame=4   AutoMesh=Yes   AtJoints=Yes   AtFrames=No   NumSegments=0   MaxLength=0   MaxDegrees=0
   Frame=11   AutoMesh=Yes   AtJoints=Yes   AtFrames=No   NumSegments=0   MaxLength=0   MaxDegrees=0
   Frame=12   AutoMesh=Yes   AtJoints=Yes   AtFrames=No   NumSegments=0   MaxLength=0   MaxDegrees=0
   Frame=13   AutoMesh=Yes   AtJoints=Yes   AtFrames=No   NumSegments=0   MaxLength=0   MaxDegrees=0
   Frame=14   AutoMesh=Yes   AtJoints=Yes   AtFrames=No   NumSegments=0   MaxLength=0   MaxDegrees=0
   Frame=15   AutoMesh=Yes   AtJoints=Yes   AtFrames=No   NumSegments=0   MaxLength=0   MaxDegrees=0
   Frame=16   AutoMesh=Yes   AtJoints=Yes   AtFrames=No   NumSegments=0   MaxLength=0   MaxDegrees=0
   Frame=17   AutoMesh=Yes   AtJoints=Yes   AtFrames=No   NumSegments=0   MaxLength=0   MaxDegrees=0
   Frame=18   AutoMesh=Yes   AtJoints=Yes   AtFrames=No   NumSegments=0   MaxLength=0   MaxDegrees=0
   Frame=19   AutoMesh=Yes   AtJoints=Yes   AtFrames=No   NumSegments=0   MaxLength=0   MaxDegrees=0
   Frame=20   AutoMesh=Yes   AtJoints=Yes   AtFrames=No   NumSegments=0   MaxLength=0   MaxDegrees=0
   Frame=21   AutoMesh=Yes   AtJoints=Yes   AtFrames=No   NumSegments=0   MaxLength=0   MaxDegrees=0
   Frame=22   AutoMesh=Yes   AtJoints=Yes   AtFrames=No   NumSegments=0   MaxLength=0   MaxDegrees=0
   Frame=23   AutoMesh=Yes   AtJoints=Yes   AtFrames=No   NumSegments=0   MaxLength=0   MaxDegrees=0
   Frame=24   AutoMesh=Yes   AtJoints=Yes   AtFrames=No   NumSegments=0   MaxLength=0   MaxDegrees=0
   Frame=25   AutoMesh=Yes   AtJoints=Yes   AtFrames=No   NumSegments=0   MaxLength=0   MaxDegrees=0
 
TABLE:  "FRAME DESIGN PROCEDURES"
   Frame=1   DesignProc="From Material"
   Frame=2   DesignProc="From Material"
   Frame=3   DesignProc="From Material"
   Frame=4   DesignProc="From Material"
   Frame=11   DesignProc="From Material"
   Frame=12   DesignProc="From Material"
   Frame=13   DesignProc="From Material"
   Frame=14   DesignProc="From Material"
   Frame=15   DesignProc="From Material"
   Frame=16   DesignProc="From Material"
   Frame=17   DesignProc="From Material"
   Frame=18   DesignProc="From Material"
   Frame=19   DesignProc="From Material"
   Frame=20   DesignProc="From Material"
   Frame=21   DesignProc="From Material"
   Frame=22   DesignProc="From Material"
   Frame=23   DesignProc="From Material"
   Frame=24   DesignProc="From Material"
   Frame=25   DesignProc="From Material"
 
TABLE:  "FRAME LOAD TRANSFER OPTIONS"
   Frame=1   Transfer=Yes
   Frame=2   Transfer=Yes
   Frame=3   Transfer=Yes
   Frame=4   Transfer=Yes
   Frame=11   Transfer=Yes
   Frame=12   Transfer=Yes
   Frame=13   Transfer=Yes
   Frame=14   Transfer=Yes
   Frame=15   Transfer=Yes
   Frame=16   Transfer=Yes
   Frame=17   Transfer=Yes
   Frame=18   Transfer=Yes
   Frame=19   Transfer=Yes
   Frame=20   Transfer=Yes
   Frame=21   Transfer=Yes
   Frame=22   Transfer=Yes
   Frame=23   Transfer=Yes
   Frame=24   Transfer=Yes
   Frame=25   Transfer=Yes
 
TABLE:  "FRAME OUTPUT STATION ASSIGNMENTS"
   Frame=1   StationType=MaxStaSpcg   MaxStaSpcg=24   AddAtElmInt=Yes   AddAtPtLoad=Yes
   Frame=2   StationType=MaxStaSpcg   MaxStaSpcg=24   AddAtElmInt=Yes   AddAtPtLoad=Yes
   Frame=3   StationType=MaxStaSpcg   MaxStaSpcg=24   AddAtElmInt=Yes   AddAtPtLoad=Yes
   Frame=4   StationType=MaxStaSpcg   MaxStaSpcg=24   AddAtElmInt=Yes   AddAtPtLoad=Yes
   Frame=11   StationType=MinNumSta   MinNumSta=3   AddAtElmInt=Yes   AddAtPtLoad=Yes
   Frame=12   StationType=MinNumSta   MinNumSta=3   AddAtElmInt=Yes   AddAtPtLoad=Yes
   Frame=13   StationType=MinNumSta   MinNumSta=3   AddAtElmInt=Yes   AddAtPtLoad=Yes
   Frame=14   StationType=MinNumSta   MinNumSta=3   AddAtElmInt=Yes   AddAtPtLoad=Yes
   Frame=15   StationType=MinNumSta   MinNumSta=3   AddAtElmInt=Yes   AddAtPtLoad=Yes
   Frame=16   StationType=MinNumSta   MinNumSta=3   AddAtElmInt=Yes   AddAtPtLoad=Yes
   Frame=17   StationType=MinNumSta   MinNumSta=3   AddAtElmInt=Yes   AddAtPtLoad=Yes
   Frame=18   StationType=MinNumSta   MinNumSta=3   AddAtElmInt=Yes   AddAtPtLoad=Yes
   Frame=19   StationType=MinNumSta   MinNumSta=3   AddAtElmInt=Yes   AddAtPtLoad=Yes
   Frame=20   StationType=MinNumSta   MinNumSta=3   AddAtElmInt=Yes   AddAtPtLoad=Yes
   Frame=21   StationType=MaxStaSpcg   MaxStaSpcg=24   AddAtElmInt=Yes   AddAtPtLoad=Yes
   Frame=22   StationType=MaxStaSpcg   MaxStaSpcg=24   AddAtElmInt=Yes   AddAtPtLoad=Yes
   Frame=23   StationType=MaxStaSpcg   MaxStaSpcg=24   AddAtElmInt=Yes   AddAtPtLoad=Yes
   Frame=24   StationType=MaxStaSpcg   MaxStaSpcg=24   AddAtElmInt=Yes   AddAtPtLoad=Yes
   Frame=25   StationType=MaxStaSpcg   MaxStaSpcg=24   AddAtElmInt=Yes   AddAtPtLoad=Yes
 
TABLE:  "FRAME SECTION ASSIGNMENTS"
   Frame=1   AutoSelect=N.A.   AnalSect=CS   MatProp=Default
   Frame=2   AutoSelect=N.A.   AnalSect=CS   MatProp=Default
   Frame=3   AutoSelect=N.A.   AnalSect=CS   MatProp=Default
   Frame=4   AutoSelect=N.A.   AnalSect=CS   MatProp=Default
   Frame=11   AutoSelect=N.A.   AnalSect=DG   MatProp=Default
   Frame=12   AutoSelect=N.A.   AnalSect=DG   MatProp=Default
   Frame=13   AutoSelect=N.A.   AnalSect=DG   MatProp=Default
   Frame=14   AutoSelect=N.A.   AnalSect=DG   MatProp=Default
   Frame=15   AutoSelect=N.A.   AnalSect=DG   MatProp=Default
   Frame=16   AutoSelect=N.A.   AnalSect=DG   MatProp=Default
   Frame=17   AutoSelect=N.A.   AnalSect=DG   MatProp=Default
   Frame=18   AutoSelect=N.A.   AnalSect=DG   MatProp=Default
   Frame=19   AutoSelect=N.A.   AnalSect=CS   MatProp=Default
   Frame=20   AutoSelect=N.A.   AnalSect=CS   MatProp=Default
   Frame=21   AutoSelect=N.A.   AnalSect=CI   MatProp=Default
   Frame=22   AutoSelect=N.A.   AnalSect=CI   MatProp=Default
   Frame=23   AutoSelect=N.A.   AnalSect=CI   MatProp=Default
   Frame=24   AutoSelect=N.A.   AnalSect=CI   MatProp=Default
   Frame=25   AutoSelect=N.A.   AnalSect=CI   MatProp=Default
 
TABLE:  "FRAME SECTION PROPERTIES 01 - GENERAL"
   SectionName=CI   Material=S275   Shape=General   t3=18   t2=10   Area=1,59650319300639   TorsConst=0   I33=0,00338753855014065   I22=0   I23=0   AS2=0   AS3=0   S33=0   S22=0   Z33=0   Z22=0   R33=0   R22=0   EccV2=0   Color=Gray8Dark _
        FromFile=No   AMod=1   A2Mod=1   A3Mod=1   JMod=1   I2Mod=1   I3Mod=1   MMod=1   WMod=1   Notes="Added 17/09/2023 14:29:57"
   SectionName=CS   Material=S275   Shape=General   t3=18   t2=10   Area=4,86700973401947   TorsConst=0   I33=25,0581752326007   I22=0   I23=0   AS2=0   AS3=0   S33=0   S22=0   Z33=0   Z22=0   R33=0   R22=0   EccV2=0   Color=Magenta _
        FromFile=No   AMod=1   A2Mod=1   A3Mod=1   JMod=1   I2Mod=1   I3Mod=1   MMod=1   WMod=1   Notes="Added 17/09/2023 14:27:15"
   SectionName=DG   Material=S275   Shape=General   t3=18   t2=10   Area=0,895901791803584   TorsConst=0   I33=0   I22=0   I23=0   AS2=0   AS3=0   S33=0   S22=0   Z33=0   Z22=0   R33=0   R22=0   EccV2=0   Color=Green   FromFile=No   AMod=1 _
        A2Mod=1   A3Mod=1   JMod=1   I2Mod=1   I3Mod=1   MMod=1   WMod=1   Notes="Added 17/09/2023 14:31:33"
   SectionName=FSEC1   Material=A992Fy50   Shape="I/Wide Flange"   t3=12   t2=5   tf=0,38   tw=0,25   t2b=5   tfb=0,38   Area=6,61   TorsConst=0,231870449633333   I33=157,902961333333   I22=7,93130208333333   I23=0   AS2=3 _
        AS3=3,16666666666667   S33=26,3171602222222   S22=3,17252083333333   Z33=29,9741   Z22=4,925625   R33=4,88758595009503   R22=1,09539692122433   Color=Cyan   FromFile=No   AMod=1   A2Mod=1   A3Mod=1   JMod=1   I2Mod=1   I3Mod=0 _
        MMod=1   WMod=1   Notes="Added 17/09/2023 13:46:05"
 
TABLE:  "FRAME SECTION PROPERTIES 13 - TIME DEPENDENT"
   SectionName=CI   TypeSize=None
   SectionName=CS   TypeSize=None
   SectionName=DG   TypeSize=None
   SectionName=FSEC1   TypeSize=Auto   AutoSFSize=1
 
TABLE:  "FUNCTION - POWER SPECTRAL DENSITY - USER"
   Name=UNIFPSD   Frequency=0   Value=1
   Name=UNIFPSD   Frequency=1   Value=1
 
TABLE:  "FUNCTION - RESPONSE SPECTRUM - USER"
   Name=UNIFRS   Period=0   Accel=1   FuncDamp=0,05
   Name=UNIFRS   Period=1   Accel=1
 
TABLE:  "FUNCTION - STEADY STATE - USER"
   Name=UNIFSS   Frequency=0   Value=1
   Name=UNIFSS   Frequency=1   Value=1
 
TABLE:  "FUNCTION - TIME HISTORY - USER"
   Name=RAMPTH   Time=0   Value=0
   Name=RAMPTH   Time=1   Value=1
   Name=RAMPTH   Time=4   Value=1
   Name=UNIFTH   Time=0   Value=1
   Name=UNIFTH   Time=1   Value=1
 
TABLE:  "GRID LINES"
   CoordSys=GLOBAL   AxisDir=X   XRYZCoord=0   LineType=Primary   LineColor=Gray8Dark   Visible=Yes   BubbleLoc=End   AllVisible=Yes   BubbleSize=96
   CoordSys=GLOBAL   AxisDir=X   XRYZCoord=47,2933070866142   LineType=Primary   LineColor=Gray8Dark   Visible=Yes   BubbleLoc=End
   CoordSys=GLOBAL   AxisDir=X   XRYZCoord=94,5866141732283   LineType=Primary   LineColor=Gray8Dark   Visible=Yes   BubbleLoc=End
   CoordSys=GLOBAL   AxisDir=X   XRYZCoord=141,879921259843   LineType=Primary   LineColor=Gray8Dark   Visible=Yes   BubbleLoc=End
   CoordSys=GLOBAL   AxisDir=X   XRYZCoord=189,173228346457   LineType=Primary   LineColor=Gray8Dark   Visible=Yes   BubbleLoc=End
   CoordSys=GLOBAL   AxisDir=X   XRYZCoord=236,466535433071   LineType=Primary   LineColor=Gray8Dark   Visible=Yes   BubbleLoc=End
   CoordSys=GLOBAL   AxisDir=X   XRYZCoord=283,759842519685   LineType=Primary   LineColor=Gray8Dark   Visible=Yes   BubbleLoc=End
   CoordSys=GLOBAL   AxisDir=X   XRYZCoord=331,053149606299   LineType=Primary   LineColor=Gray8Dark   Visible=Yes   BubbleLoc=End
   CoordSys=GLOBAL   AxisDir=X   XRYZCoord=378,346456692913   LineType=Primary   LineColor=Gray8Dark   Visible=Yes   BubbleLoc=End
   CoordSys=GLOBAL   AxisDir=Y   XRYZCoord=0   LineType=Primary   LineColor=Gray8Dark   Visible=Yes   BubbleLoc=End
   CoordSys=GLOBAL   AxisDir=Z   XRYZCoord=0   LineType=Primary   LineColor=Gray8Dark   Visible=Yes   BubbleLoc=End
   CoordSys=GLOBAL   AxisDir=Z   XRYZCoord=24,3307086614173   LineType=Primary   LineColor=Gray8Dark   Visible=Yes   BubbleLoc=End
 
TABLE:  "GROUPS 1 - DEFINITIONS"
   GroupName=ALL   Selection=Yes   SectionCut=Yes   Steel=Yes   Concrete=Yes   Aluminum=Yes   ColdFormed=Yes   Stage=Yes   Bridge=Yes   AutoSeismic=No   AutoWind=No   SelDesSteel=No   SelDesAlum=No   SelDesCold=No   MassWeight=Yes   Color=Red
 
TABLE:  "JOINT COORDINATES"
   Joint=1   CoordSys=GLOBAL   CoordType=Cartesian   XorR=0   Y=0   Z=24,3307086614173   SpecialJt=No   GUID=25e865ad-d115-4c7a-8fc3-f66ba7ab64de
   Joint=2   CoordSys=GLOBAL   CoordType=Cartesian   XorR=94,5866141732283   Y=0   Z=24,3307086614173   SpecialJt=No   GUID=25e865ad-d115-4c7a-8fc3-f66ba7ab64de
   Joint=3   CoordSys=GLOBAL   CoordType=Cartesian   XorR=189,173228346457   Y=0   Z=24,3307086614173   SpecialJt=No   GUID=25e865ad-d115-4c7a-8fc3-f66ba7ab64de
   Joint=4   CoordSys=GLOBAL   CoordType=Cartesian   XorR=283,759842519685   Y=0   Z=24,3307086614173   SpecialJt=No   GUID=25e865ad-d115-4c7a-8fc3-f66ba7ab64de
   Joint=5   CoordSys=GLOBAL   CoordType=Cartesian   XorR=378,346456692913   Y=0   Z=24,3307086614173   SpecialJt=No   GUID=25e865ad-d115-4c7a-8fc3-f66ba7ab64de
   Joint=7   CoordSys=GLOBAL   CoordType=Cartesian   XorR=0   Y=0   Z=0   SpecialJt=No   GUID=25e865ad-d115-4c7a-8fc3-f66ba7ab64de
   Joint=11   CoordSys=GLOBAL   CoordType=Cartesian   XorR=378,346456692913   Y=0   Z=0   SpecialJt=No   GUID=25e865ad-d115-4c7a-8fc3-f66ba7ab64de
   Joint=12   CoordSys=GLOBAL   CoordType=Cartesian   XorR=47,2933070866142   Y=0   Z=0   SpecialJt=No   GUID=25e865ad-d115-4c7a-8fc3-f66ba7ab64de
   Joint=13   CoordSys=GLOBAL   CoordType=Cartesian   XorR=141,879921259843   Y=0   Z=0   SpecialJt=No   GUID=25e865ad-d115-4c7a-8fc3-f66ba7ab64de
   Joint=14   CoordSys=GLOBAL   CoordType=Cartesian   XorR=236,466535433071   Y=0   Z=0   SpecialJt=No   GUID=25e865ad-d115-4c7a-8fc3-f66ba7ab64de
   Joint=15   CoordSys=GLOBAL   CoordType=Cartesian   XorR=331,053149606299   Y=0   Z=0   SpecialJt=No   GUID=25e865ad-d115-4c7a-8fc3-f66ba7ab64de
 
TABLE:  "JOINT LOADS - FORCE"
   Joint=1   LoadPat=G+Q   CoordSys=GLOBAL   F1=0   F2=0   F3=-2,33553990785532   M1=0   M2=0   M3=0   GUID=e6c6cac8-5ece-446d-b702-d38fdea2bb33
   Joint=2   LoadPat=G+Q   CoordSys=GLOBAL   F1=0   F2=0   F3=-4,67130462463429   M1=0   M2=0   M3=0   GUID=4cb12bbf-67a3-4472-9e7e-91a02ec6da90
   Joint=3   LoadPat=G+Q   CoordSys=GLOBAL   F1=0   F2=0   F3=-4,67130462463429   M1=0   M2=0   M3=0   GUID=8d4959a5-b976-447c-8bad-6ee3005993d7
   Joint=4   LoadPat=G+Q   CoordSys=GLOBAL   F1=0   F2=0   F3=-4,67130462463429   M1=0   M2=0   M3=0   GUID=9336f4f5-297f-4d98-b53b-b279e42c1752
   Joint=5   LoadPat=G+Q   CoordSys=GLOBAL   F1=0   F2=0   F3=-2,33553990785532   M1=0   M2=0   M3=0   GUID=e530c567-70e3-44c0-98b1-2fb1b5e8bfce
 
TABLE:  "JOINT PATTERN DEFINITIONS"
   Pattern=Default
 
TABLE:  "JOINT RESTRAINT ASSIGNMENTS"
   Joint=7   U1=Yes   U2=Yes   U3=Yes   R1=No   R2=No   R3=No
   Joint=11   U1=No   U2=No   U3=Yes   R1=No   R2=No   R3=No
 
TABLE:  "LOAD CASE DEFINITIONS"
   Case=DEAD   Type=LinStatic   InitialCond=Zero   DesTypeOpt="Prog Det"   DesignType=OTHER   DesActOpt="Prog Det"   DesignAct=Other   AutoType=None   RunCase=No
   Case=MODAL   Type=LinModal   InitialCond=Zero   DesTypeOpt="Prog Det"   DesignType=OTHER   DesActOpt="Prog Det"   DesignAct=Other   AutoType=None   RunCase=No
   Case=G+Q   Type=LinStatic   InitialCond=Zero   DesTypeOpt="Prog Det"   DesignType=DEAD   DesActOpt="Prog Det"   DesignAct=Non-Composite   AutoType=None   RunCase=Yes
 
TABLE:  "LOAD PATTERN DEFINITIONS"
   LoadPat=G+Q   DesignType=DEAD   SelfWtMult=0   GUID=a7445e54-3d79-4e4d-af38-ccaded113828
 
TABLE:  "MASS SOURCE"
   MassSource=MSSSRC1   Elements=Yes   Masses=Yes   Loads=No   IsDefault=Yes
 
TABLE:  "MATERIAL PROPERTIES 01 - GENERAL"
   Material=4000Psi   Type=Concrete   SymType=Isotropic   TempDepend=No   Color=Red   Notes="Customary f'c 4000 psi 17/09/2023 13:38:28"
   Material=A992Fy50   Type=Steel   SymType=Isotropic   TempDepend=No   Color=Cyan   Notes="ASTM A992 Grade 50 17/09/2023 13:38:28"
   Material=S275   Type=Steel   SymType=Isotropic   TempDepend=No   Color=Green   Notes="Europe EN 1993-1-1 per EN 10025-2 S275 added 17/09/2023 14:25:51"
 
TABLE:  "MATERIAL PROPERTIES 02 - BASIC MECHANICAL PROPERTIES"
   Material=4000Psi   UnitWeight=8,680555556E-05   UnitMass=2,248332521E-07   E1=3604,9965   G12=1502,081875   U12=0,2   A1=5,5E-06
   Material=A992Fy50   UnitWeight=0,000283564814814815   UnitMass=7,34455290352564E-07   E1=29000   G12=11153,8461538462   U12=0,3   A1=6,5E-06
   Material=S275   UnitWeight=0,000283564814814815   UnitMass=7,34455290352564E-07   E1=30457,9222889505   G12=11714,5854957502   U12=0,3   A1=6,50000030994415E-06
 
TABLE:  "MATERIAL PROPERTIES 03A - STEEL DATA"
   Material=A992Fy50   Fy=50   Fu=65   EffFy=55   EffFu=71,5   SSCurveOpt=Simple   SSHysType=Kinematic   SHard=0,015   SMax=0,11   SRup=0,17   FinalSlope=-0,1
   Material=S275   Fy=39,8853744260066   Fu=62,3662218297558   EffFy=43,8739118686073   EffFu=68,6028440127314   SSCurveOpt=Simple   SSHysType=Kinematic   SHard=0,015   SMax=0,11   SRup=0,17   FinalSlope=-0,1
 
TABLE:  "MATERIAL PROPERTIES 03B - CONCRETE DATA"
   Material=4000Psi   Fc=4   LtWtConc=No   SSCurveOpt=Mander   SSHysType=Takeda   SFc=0,00221914   SCap=0,005   FinalSlope=-0,1   FAngle=0   DAngle=0
 
TABLE:  "MATERIAL PROPERTIES 06 - DAMPING PARAMETERS"
   Material=4000Psi   ModalRatio=0   VisMass=0   VisStiff=0   HysMass=0   HysStiff=0
   Material=A992Fy50   ModalRatio=0   VisMass=0   VisStiff=0   HysMass=0   HysStiff=0
   Material=S275   ModalRatio=0   VisMass=0   VisStiff=0   HysMass=0   HysStiff=0
 
TABLE:  "OPTIONS - COLORS - DISPLAY"
   DeviceType=Screen   Points=Blue   LinesFrame=Blue   LinesFrmDL=Blue   LinesCable=Green   LinesTendon=Green   SpringLinks=Green   Restraints=Green   Releases=Green   Axes=Cyan   Text=Black   ShadowLines=Gray8Dark   GuideLines=Gray8Dark _
        Highlight=Red   Selection=10504778   AreaFillBot=Red   AreaFillTop=16744703   AreaFillSd=Red   AreaEdge=DarkRed   SolidF1=Red   SolidF2=Blue   SolidF3=Green   SolidF4=Yellow   SolidF5=White   SolidF6=Cyan   SolidEdge=DarkRed _
        Floor=Gray4   Background=White   BGLowLeft=White   BGLowRight=White   BGUpRight=White   Darkness=0,5
   DeviceType=Printer   Points=Gray8Dark   LinesFrame=Black   LinesFrmDL=Gray4   LinesCable=Black   LinesTendon=Black   SpringLinks=Gray8Dark   Restraints=Gray8Dark   Releases=Gray4   Axes=Black   Text=Black   ShadowLines=Gray4 _
        GuideLines=Gray4   Highlight=Black   Selection=Black   AreaFillBot=Gray4   AreaFillTop=Gray8Dark   AreaFillSd=Gray4   AreaEdge=Black   SolidF1=Gray1Light   SolidF2=Gray2   SolidF3=Gray3   SolidF4=Gray4   SolidF5=Gray5 _
        SolidF6=Gray6   SolidEdge=Black   Floor=Gray4   Background=White   BGLowLeft=White   BGLowRight=White   BGUpRight=White   Darkness=0,5
   DeviceType="Color Printer"   Points=Blue   LinesFrame=Blue   LinesFrmDL=Blue   LinesCable=Green   LinesTendon=Green   SpringLinks=Green   Restraints=Green   Releases=Green   Axes=Cyan   Text=Black   ShadowLines=Gray8Dark _
        GuideLines=Gray8Dark   Highlight=Red   Selection=10504778   AreaFillBot=Red   AreaFillTop=16744703   AreaFillSd=Red   AreaEdge=DarkRed   SolidF1=Red   SolidF2=Blue   SolidF3=Green   SolidF4=Yellow   SolidF5=White   SolidF6=Cyan _
        SolidEdge=DarkRed   Floor=Gray4   Background=White   BGLowLeft=White   BGLowRight=White   BGUpRight=White   Darkness=0,5
 
TABLE:  "OPTIONS - COLORS - OUTPUT"
   DeviceType=Screen   Contour1=13107400   Contour2=6553828   Contour3=Red   Contour4=16639   Contour5=Orange   Contour6=43775   Contour7=54527   Contour8=Yellow   Contour9=65408   Contour10=Green   Contour11=8453888   Contour12=Cyan _
        Contour13=16755200   Contour14=16733440   Contour15=Blue   Transpare=0,5   Ratio1=Cyan   Ratio2=Green   Ratio3=Yellow   Ratio4=Orange   Ratio5=Red   RatioNotD=Gray4   RatioNotC=Red   RatioVal1=0,5   RatioVal2=0,7   RatioVal3=0,9 _
        RatioVal4=1   DFillPos=Blue   DFillNeg=Red   DFillRPos=Green   DFillRNeg=Green
   DeviceType=Printer   Contour1=Black   Contour2=3158064   Contour3=4210752   Contour4=5263440   Contour5=6316128   Contour6=7368816   Contour7=Gray8Dark   Contour8=Gray7   Contour9=Gray6   Contour10=Gray5   Contour11=Gray4 _
        Contour12=Gray3   Contour13=Gray2   Contour14=Gray1Light   Contour15=White   Transpare=0   Ratio1=Gray2   Ratio2=Gray4   Ratio3=Gray8Dark   Ratio4=4210752   Ratio5=Black   RatioNotD=Gray4   RatioNotC=Black   RatioVal1=0,5 _
        RatioVal2=0,7   RatioVal3=0,9   RatioVal4=1   DFillPos=Gray8Dark   DFillNeg=Gray8Dark   DFillRPos=4210752   DFillRNeg=4210752
   DeviceType="Color Printer"   Contour1=13107400   Contour2=6553828   Contour3=Red   Contour4=16639   Contour5=Orange   Contour6=43775   Contour7=54527   Contour8=Yellow   Contour9=65408   Contour10=Green   Contour11=8453888 _
        Contour12=Cyan   Contour13=16755200   Contour14=16733440   Contour15=Blue   Transpare=0   Ratio1=Cyan   Ratio2=Green   Ratio3=Yellow   Ratio4=Orange   Ratio5=Red   RatioNotD=Gray4   RatioNotC=Red   RatioVal1=0,5   RatioVal2=0,7 _
        RatioVal3=0,9   RatioVal4=1   DFillPos=Blue   DFillNeg=Red   DFillRPos=Green   DFillRNeg=Green
 
TABLE:  "PREFERENCES - ALUMINUM DESIGN - AA-ASD 2000"
   THDesign=Envelopes   FrameType="Moment Frame"   SRatioLimit=1   MaxIter=1   LatFact=1,33333333333333   UseLatFact=No   Bridge=No
 
TABLE:  "PREFERENCES - COLD FORMED DESIGN - AISI-ASD96"
   THDesign=Envelopes   FrameType="Braced Frame"   SRatioLimit=1   MaxIter=1   OmegaBS=1,67   OmegaBUS=1,67   OmegaBLTB=1,67   OmegaVS=1,67   OmegaVNS=1,5   OmegaT=1,67   OmegaC=1,8
 
TABLE:  "PREFERENCES - CONCRETE DESIGN - ACI 318-14"
   THDesign=Envelopes   NumCurves=24   NumPoints=11   MinEccen=Yes   PatLLF=0,75   UFLimit=0,95   SeisCat=D   Rho=1   Sds=0,5   PhiT=0,9   PhiCTied=0,65   PhiCSpiral=0,75   PhiV=0,75   PhiVSeismic=0,6   PhiVJoint=0,85
 
TABLE:  "PREFERENCES - DIMENSIONAL"
   MergeTol=0,1   FineGrid=12   Nudge=12   SelectTol=3   SnapTol=12   SLineThick=2   PLineThick=4   MaxFont=8   MinFont=3   AutoZoom=10   ShrinkFact=70   TextFileLen=240
 
TABLE:  "PREFERENCES - STEEL DESIGN - AISC 360-10"
   THDesign=Envelopes   FrameType=SMF   PatLLF=0,75   SRatioLimit=0,95   MaxIter=1   SDC=D   SeisCode=Yes   SeisLoad=Yes   ImpFactor=1   SystemRho=1   SystemSds=0,5   SystemR=8   SystemCd=5,5   Omega0=3   Provision=LRFD _
        AMethod="Direct Analysis"   SOMethod="General 2nd Order"   SRMethod="Tau-b Fixed"   NLCoeff=0,002   PhiB=0,9   PhiC=0,9   PhiTY=0,9   PhiTF=0,75   PhiV=0,9   PhiVRolledI=1   PhiVT=0,9   PlugWeld=Yes   HSSWelding=ERW   HSSReduceT=No _
        CheckDefl=No   DLRat=120   SDLAndLLRat=120   LLRat=360   TotalRat=240   NetRat=240
 
TABLE:  "PROGRAM CONTROL"
   ProgramName=SAP2000   Version=18.1.1   CurrUnits="Kip, in, F"   SteelCode="AISC 360-10"   ConcCode="ACI 318-14"   AlumCode="AA-ASD 2000"   ColdCode=AISI-ASD96   RegenHinge=Yes
 
TABLE:  "PROJECT INFORMATION"
   Item="Company Name"
   Item="Client Name"
   Item="Project Name"
   Item="Project Number"
   Item="Model Name"
   Item="Model Description"
   Item="Revision Number"
   Item="Frame Type"
   Item=Engineer
   Item=Checker
   Item=Supervisor
   Item="Issue Code"
   Item="Design Code"
 
TABLE:  "REBAR SIZES"
   RebarID=#2   Area=0,05   Diameter=0,25
   RebarID=#3   Area=0,109999999403954   Diameter=0,375
   RebarID=#4   Area=0,200000002980232   Diameter=0,5
   RebarID=#5   Area=0,310000002384186   Diameter=0,625
   RebarID=#6   Area=0,439999997615814   Diameter=0,75
   RebarID=#7   Area=0,600000023841858   Diameter=0,875
   RebarID=#8   Area=0,790000021457672   Diameter=1
   RebarID=#9   Area=1   Diameter=1,12800002098083
   RebarID=#10   Area=1,26999998092651   Diameter=1,26999998092651
   RebarID=#11   Area=1,55999994277954   Diameter=1,4099999666214
   RebarID=#14   Area=2,25   Diameter=1,692999958992
   RebarID=#18   Area=4   Diameter=2,25699996948242
   RebarID=10M   Area=0,155000314116478   Diameter=0,444881916046143
   RebarID=15M   Area=0,310000628232956   Diameter=0,62992125749588
   RebarID=20M   Area=0,465000957250595   Diameter=0,767716526985168
   RebarID=25M   Area=0,775001585483551   Diameter=0,992126047611237
   RebarID=30M   Area=1,08500218391418   Diameter=1,17716538906097
   RebarID=35M   Area=1,5500031709671   Diameter=1,4055118560791
   RebarID=45M   Area=2,3250048160553   Diameter=1,72047245502472
   RebarID=55M   Area=3,87500786781311   Diameter=2,22047257423401
   RebarID=6d   Area=0,0438650883734226   Diameter=0,236220479011536
   RebarID=8d   Area=0,0779651552438736   Diameter=0,31496062874794
   RebarID=10d   Area=0,121675245463848   Diameter=0,393700778484344
   RebarID=12d   Area=0,175150364637375   Diameter=0,472440958023071
   RebarID=14d   Area=0,238700494170189   Diameter=0,551181137561798
   RebarID=16d   Area=0,31155064702034   Diameter=0,62992125749588
   RebarID=20d   Area=0,486700981855392   Diameter=0,787401556968689
   RebarID=25d   Area=0,761051535606384   Diameter=0,984251976013184
   RebarID=26d   Area=0,823051691055298   Diameter=1,02362203598022
   RebarID=28d   Area=0,954801976680756   Diameter=1,1023622751236
   RebarID=N12   Area=0,175150364637375   Diameter=0,472440958023071
   RebarID=N16   Area=0,31155064702034   Diameter=0,62992125749588
   RebarID=N20   Area=0,486700981855392   Diameter=0,787401556968689
   RebarID=N24   Area=0,7006014585495   Diameter=0,944881916046143
   RebarID=N28   Area=0,954801976680756   Diameter=1,1023622751236
   RebarID=N32   Area=1,24620258808136   Diameter=1,25984251499176
   RebarID=N36   Area=1,58100318908691   Diameter=1,41732287406921
 
END TABLE DATA
